<?xml version="1.0" encoding="UTF-8"?>

<!-- generated on 2026-02-23T14:05:35.733608+06:00 by Eclipse SUMO polyconvert 1.26.0
<polyconvertConfiguration xmlns:xsi="http://www.w3.org/2001/XMLSchema-instance" xsi:noNamespaceSchemaLocation="http://sumo.dlr.de/xsd/polyconvertConfiguration.xsd">

    <input>
        <net-file value=".\data\networks\city_001.net.xml"/>
        <osm-files value=".\data\osm\map_001.osm"/>
        <type-file value="D:\Program Files (x86)\Eclipse\Sumo\data\typemap\osmPolyconvert.typ.xml"/>
    </input>

    <output>
        <output-file value="buildings.poly.xml"/>
    </output>

</polyconvertConfiguration>
-->

<additional xmlns:xsi="http://www.w3.org/2001/XMLSchema-instance" xsi:noNamespaceSchemaLocation="http://sumo.dlr.de/xsd/additional_file.xsd">
    <location netOffset="-467311.09,-4743445.82" convBoundary="-619.12,0.00,2355.84,3613.86" origBoundary="74.592312,42.842920,74.628731,42.875493" projParameter="+proj=utm +zone=43 +ellps=WGS84 +datum=WGS84 +units=m +no_defs"/>

    <poly id="104786627" type="military" color="153,153,92" fill="1" layer="-3.00" shape="1304.330177,1816.587132 1373.634432,1813.350830 1369.358149,1713.837933 1320.000936,1716.550223 1308.026993,1747.631640 1302.529975,1760.427236 1304.330177,1816.587132"/>
    <poly id="104786628" type="building" color="255,150,150" fill="1" layer="-1.00" shape="1470.312245,1505.142000 1479.305523,1504.734751 1479.169379,1501.737073 1499.099954,1500.824962 1499.244209,1503.811499 1508.180301,1503.404547 1507.645656,1491.791351 1469.777536,1493.528807 1470.312245,1505.142000"/>
    <poly id="1080308218" type="tourism" color="207,245,201" fill="1" layer="-2.00" shape="385.017575,1138.694822 379.412220,1065.496026 474.434015,1058.276704 475.974542,1078.435822 462.506183,1079.453882 466.561988,1132.504766 385.017575,1138.694822"/>
    <poly id="1080800588" type="building" color="255,150,150" fill="1" layer="-1.00" shape="369.805674,1119.854745 374.839073,1119.942160 374.970207,1113.067668 369.936751,1112.969148 369.805674,1119.854745"/>
    <poly id="110002824" type="building" color="255,150,150" fill="1" layer="-1.00" shape="1396.058615,1840.000294 1398.107685,1875.604087 1423.369434,1874.156683 1421.320495,1838.552884 1396.058615,1840.000294"/>
    <poly id="110002828" type="building" color="255,150,150" fill="1" layer="-1.00" shape="776.686409,1298.131652 810.804132,1296.130143 809.934896,1279.565801 775.792632,1281.578532 776.686409,1298.131652"/>
    <poly id="110002832" type="building" color="255,150,150" fill="1" layer="-1.00" shape="1035.685389,1829.921869 1064.033799,1828.136910 1063.364083,1817.512685 1035.015578,1819.286542 1035.685389,1829.921869"/>
    <poly id="1101990228" type="building" color="255,150,150" fill="1" layer="-1.00" shape="671.902427,1891.470924 676.410816,1891.216747 675.948711,1883.201219 671.440316,1883.455396 671.902427,1891.470924"/>
    <poly id="1101990239" type="landuse" color="194,194,130" fill="1" layer="-3.00" shape="854.390197,1917.353541 863.029829,1916.558449 859.443244,1877.663768 850.803563,1878.458864 854.390197,1917.353541"/>
    <poly id="1101990243" type="parking" color="184,184,179" fill="1" layer="-1.00" shape="652.427975,1661.947287 656.675707,1661.827570 655.508289,1619.890124 651.260531,1620.009842 652.427975,1661.947287"/>
    <poly id="1101990244" type="parking" color="184,184,179" fill="1" layer="-1.00" shape="627.971675,1680.350812 640.487122,1680.214781 640.390373,1671.720049 640.347246,1667.722517 627.831777,1667.858548 627.971675,1680.350812"/>
    <poly id="1177906290" type="landuse" color="194,194,130" fill="1" layer="-3.00" shape="432.687427,1477.667707 432.616963,1471.349398 324.584021,1474.655012 324.811483,1481.327937 432.687427,1477.667707"/>
    <poly id="1177906295" type="building" color="255,150,150" fill="1" layer="-1.00" shape="433.039807,1458.721243 432.837531,1450.426895 438.449706,1450.289545 438.651975,1458.583893 433.039807,1458.721243"/>
    <poly id="1177906295#1" type="shop" color="237,199,255" fill="1" layer="-1.00" shape="433.039807,1458.721243 432.837531,1450.426895 438.449706,1450.289545 438.651975,1458.583893 433.039807,1458.721243"/>
    <poly id="130503630" type="building" color="255,150,150" fill="1" layer="-1.00" shape="855.261973,1372.880663 858.115491,1375.110636 862.065325,1375.903019 865.879458,1375.618867 870.873211,1372.475327 873.422713,1369.032156 874.613182,1364.984504 874.672295,1360.098117 874.332363,1355.491194 873.562040,1351.452606 871.669657,1346.819546 868.161095,1344.281662 864.124615,1342.423614 859.943327,1342.820514 856.435625,1344.002741 853.538462,1346.470304 851.437689,1353.309477 851.272999,1358.329611 851.786876,1365.212213 852.943150,1369.670996 855.261973,1372.880663"/>
    <poly id="130503636" type="building" color="255,150,150" fill="1" layer="-1.00" shape="891.212551,1459.964927 909.189925,1458.915770 908.090304,1440.175935 890.112880,1441.225095 891.212551,1459.964927"/>
    <poly id="130503640" type="building" color="255,150,150" fill="1" layer="-1.00" shape="861.032984,1500.703609 875.628772,1499.847680 874.422351,1479.231630 859.818298,1480.076494 861.032984,1500.703609"/>
    <poly id="130503641" type="building" color="255,150,150" fill="1" layer="-1.00" shape="856.609022,1436.249560 874.087578,1435.091572 872.893618,1417.173934 855.415017,1418.331926 856.609022,1436.249560"/>
    <poly id="130503642" type="building" color="255,150,150" fill="1" layer="-1.00" shape="863.239298,1479.594271 880.269123,1478.593840 879.639638,1467.902820 862.609735,1468.892149 863.239298,1479.594271"/>
    <poly id="130503644" type="school" color="237,199,199" fill="1" layer="-2.00" shape="867.172381,1400.798587 883.050751,1399.870118 881.941855,1380.908235 866.055272,1381.836745 867.172381,1400.798587"/>
    <poly id="130503644#1" type="building" color="255,150,150" fill="1" layer="-1.00" shape="867.172381,1400.798587 883.050751,1399.870118 881.941855,1380.908235 866.055272,1381.836745 867.172381,1400.798587"/>
    <poly id="130503646" type="building" color="255,150,150" fill="1" layer="-1.00" shape="879.401026,1538.241773 899.354762,1537.072405 898.538665,1523.117432 878.584837,1524.275697 879.401026,1538.241773"/>
    <poly id="130503656" type="building" color="255,150,150" fill="1" layer="-1.00" shape="625.890764,1610.722220 643.585134,1610.395496 643.140449,1586.833154 634.726176,1586.983389 625.454189,1587.159840 625.890764,1610.722220"/>
    <poly id="130503656#1" type="shop" color="237,199,255" fill="1" layer="-1.00" shape="625.890764,1610.722220 643.585134,1610.395496 643.140449,1586.833154 634.726176,1586.983389 625.454189,1587.159840 625.890764,1610.722220"/>
    <poly id="130503657" type="building" color="255,150,150" fill="1" layer="-1.00" shape="795.750763,1505.103511 826.858356,1502.549676 824.452650,1473.510636 793.353096,1476.064444 795.750763,1505.103511"/>
    <poly id="130503660" type="building" color="255,150,150" fill="1" layer="-1.00" shape="793.705669,1439.317000 806.602710,1438.568743 805.626754,1421.893844 792.721564,1422.653245 793.705669,1439.317000"/>
    <poly id="130503660#1" type="shop" color="237,199,255" fill="1" layer="-1.00" shape="793.705669,1439.317000 806.602710,1438.568743 805.626754,1421.893844 792.721564,1422.653245 793.705669,1439.317000"/>
    <poly id="130503666" type="building" color="255,150,150" fill="1" layer="-1.00" shape="398.960579,1419.980891 420.198046,1418.970686 419.608843,1406.569373 398.371286,1407.568474 398.960579,1419.980891"/>
    <poly id="130503670" type="building" color="255,150,150" fill="1" layer="-1.00" shape="490.784587,1584.235066 491.213779,1613.105578 501.327362,1612.958323 501.088397,1596.801935 505.818439,1596.735393 505.628262,1584.021270 490.784587,1584.235066"/>
    <poly id="131746403" type="building" color="255,150,150" fill="1" layer="-1.00" shape="1252.182022,1810.861888 1206.221687,1813.048664 1206.610516,1821.253338 1252.578915,1819.055422 1252.182022,1810.861888"/>
    <poly id="131746409" type="building" color="255,150,150" fill="1" layer="-1.00" shape="1267.931175,1821.195161 1267.235806,1806.673249 1252.019144,1807.397932 1252.182022,1810.861888 1252.578915,1819.055422 1252.714545,1821.919843 1267.931175,1821.195161"/>
    <poly id="1320876857" type="building" color="255,150,150" fill="1" layer="-1.00" shape="1302.666709,1865.633544 1302.498771,1857.472277 1322.193764,1857.082643 1322.353459,1865.232843 1302.666709,1865.633544"/>
    <poly id="1320876858" type="building" color="255,150,150" fill="1" layer="-1.00" shape="1288.163594,1866.943449 1287.993178,1854.662310 1296.415502,1854.557253 1296.577683,1866.827325 1288.163594,1866.943449"/>
    <poly id="1327865612" type="water" color="181,209,209" fill="0" layer="-4.00" shape="282.478806,1641.858508 340.470469,1711.868065"/>
    <poly id="133453098" type="building" color="255,150,150" fill="1" layer="-1.00" shape="1269.225724,1265.493863 1268.351946,1251.272607 1254.196826,1252.136789 1255.062412,1266.346976 1269.225724,1265.493863"/>
    <poly id="133453116" type="building" color="255,150,150" fill="1" layer="-1.00" shape="1170.410114,1100.339844 1171.089091,1120.147690 1181.341381,1119.800921 1180.662384,1099.981969 1170.410114,1100.339844"/>
    <poly id="133453142" type="building" color="255,150,150" fill="1" layer="-1.00" shape="1366.891830,1243.727487 1380.369517,1243.010981 1379.404351,1224.814614 1365.926577,1225.520017 1366.891830,1243.727487"/>
    <poly id="133453146" type="building" color="255,150,150" fill="1" layer="-1.00" shape="1329.730653,1262.841488 1342.211955,1262.218285 1341.170100,1241.557006 1332.985325,1241.960748 1329.179798,1236.980928 1323.919974,1240.969308 1328.966574,1247.564770 1329.730653,1262.841488"/>
    <poly id="133453152" type="building" color="255,150,150" fill="1" layer="-1.00" shape="1212.128651,1718.464213 1245.865651,1717.610376 1245.518119,1704.130730 1211.789223,1704.984531 1212.128651,1718.464213"/>
    <poly id="133468436" type="building" color="255,150,150" fill="1" layer="-1.00" shape="790.163040,1133.273891 771.905754,1134.047027 772.437249,1146.470837 790.694502,1145.697701 790.163040,1133.273891"/>
    <poly id="133468438" type="building" color="255,150,150" fill="1" layer="-1.00" shape="744.087750,1134.531436 744.857002,1150.640935 757.281428,1150.050252 756.512205,1133.940751 744.087750,1134.531436"/>
    <poly id="133754814" type="building" color="255,150,150" fill="1" layer="-1.00" shape="798.774700,1471.830597 814.238654,1471.425813 813.811129,1454.970468 798.347087,1455.364148 798.774700,1471.830597"/>
    <poly id="133754819" type="building" color="255,150,150" fill="1" layer="-1.00" shape="685.750582,1520.983223 685.166523,1507.826738 672.628164,1508.373669 673.212299,1521.541257 685.750582,1520.983223"/>
    <poly id="133754821" type="building" color="255,150,150" fill="1" layer="-1.00" shape="771.037537,1480.643142 771.462795,1496.587675 784.010329,1496.251873 783.585151,1480.318444 771.037537,1480.643142"/>
    <poly id="133754822" type="building" color="255,150,150" fill="1" layer="-1.00" shape="807.840508,1799.213940 834.258902,1798.747346 834.124783,1790.952388 807.698189,1791.419020 807.840508,1799.213940"/>
    <poly id="133754826" type="building" color="255,150,150" fill="1" layer="-1.00" shape="918.051038,1362.618407 936.307730,1361.845654 935.832426,1350.909615 917.583876,1351.682331 918.051038,1362.618407"/>
    <poly id="134924038" type="residential" color="235,235,227" fill="1" layer="-3.00" shape="1372.068946,1444.201032 1428.322742,1441.291234 1418.663857,1302.414111 1418.095519,1294.210250 1408.686306,1294.841562 1359.884162,1298.106252 1372.068946,1444.201032"/>
    <poly id="134924040" type="residential" color="235,235,227" fill="1" layer="-3.00" shape="1443.332111,1432.516912 1492.790464,1428.228188 1483.906851,1296.076980 1476.513872,1296.310391 1469.545685,1296.530777 1453.910097,1297.012597 1448.592007,1297.169992 1432.139517,1297.677779 1443.332111,1432.516912"/>
    <poly id="135265099" type="amenity" color="237,199,199" fill="1" layer="-1.00" shape="975.485269,1713.254288 1026.617589,1711.053284 1025.904643,1694.599238 1011.585894,1695.209271 1011.384336,1690.468446 997.955961,1691.052199 998.166311,1695.926241 974.780985,1696.933464 975.485269,1713.254288"/>
    <poly id="135265099#1" type="building" color="255,150,150" fill="1" layer="-1.00" shape="975.485269,1713.254288 1026.617589,1711.053284 1025.904643,1694.599238 1011.585894,1695.209271 1011.384336,1690.468446 997.955961,1691.052199 998.166311,1695.926241 974.780985,1696.933464 975.485269,1713.254288"/>
    <poly id="135265105" type="building" color="255,150,150" fill="1" layer="-1.00" shape="638.323218,1522.569830 637.371479,1509.426166 623.013488,1510.459169 623.965254,1523.602832 638.323218,1522.569830"/>
    <poly id="135265106" type="building" color="255,150,150" fill="1" layer="-1.00" shape="982.751216,1729.878021 983.949938,1779.044597 996.995403,1778.729094 995.804944,1729.562478 982.751216,1729.878021"/>
    <poly id="1454169633" type="building" color="255,150,150" fill="1" layer="-1.00" shape="767.409225,1267.325526 765.919135,1229.664940 734.469217,1230.899155 734.839741,1240.314309 735.218435,1249.729426 735.959479,1268.559735 767.409225,1267.325526"/>
    <poly id="153930476" type="building" color="255,150,150" fill="1" layer="-1.00" shape="1539.461211,1234.027149 1540.813609,1256.641491 1546.744086,1256.392558 1546.982445,1258.512495 1554.751089,1258.233042 1554.977422,1255.888907 1559.395380,1255.413627 1558.927223,1244.033332 1554.213578,1244.165702 1553.681709,1233.152154 1539.461211,1234.027149"/>
    <poly id="155042034" type="amenity" color="237,199,199" fill="1" layer="-1.00" shape="1445.286023,1835.878819 1567.072816,1825.721283 1571.064179,1947.778332 1461.612041,1957.202440 1455.898358,1886.290875 1449.334092,1887.175743 1445.286023,1835.878819"/>
    <poly id="156473082" type="building" color="255,150,150" fill="1" layer="-1.00" shape="905.656828,1836.673284 905.344923,1827.513254 920.088711,1827.012083 920.400597,1836.172113 905.656828,1836.673284"/>
    <poly id="156473395" type="building" color="255,150,150" fill="1" layer="-1.00" shape="1009.058542,1751.366821 1007.949003,1721.533306 1017.260895,1721.190612 1018.370393,1751.024128 1009.058542,1751.366821"/>
    <poly id="156473396" type="building" color="255,150,150" fill="1" layer="-1.00" shape="945.864230,1772.213041 943.212527,1698.578171 965.095616,1697.788758 967.747188,1771.445844 945.864230,1772.213041"/>
    <poly id="157713839" type="commercial" color="209,209,204" fill="1" layer="-3.00" shape="306.100032,1121.431231 304.120439,1082.729179 367.212137,1079.090067 369.610198,1118.245466 306.100032,1121.431231"/>
    <poly id="157713839#1" type="military" color="153,153,92" fill="1" layer="-2.00" shape="306.100032,1121.431231 304.120439,1082.729179 367.212137,1079.090067 369.610198,1118.245466 306.100032,1121.431231"/>
    <poly id="159508048" type="building" color="255,150,150" fill="1" layer="-1.00" shape="1340.408797,1811.580982 1353.966608,1810.764104 1354.178400,1814.216734 1359.903701,1813.868626 1359.691911,1810.415996 1373.176202,1809.599492 1371.621844,1783.998886 1361.314613,1784.623252 1362.029825,1796.368879 1350.293315,1797.077503 1349.578084,1785.331876 1338.854316,1785.980383 1340.408797,1811.580982"/>
    <poly id="159508048#1" type="military" color="153,153,92" fill="1" layer="-2.00" shape="1340.408797,1811.580982 1353.966608,1810.764104 1354.178400,1814.216734 1359.903701,1813.868626 1359.691911,1810.415996 1373.176202,1809.599492 1371.621844,1783.998886 1361.314613,1784.623252 1362.029825,1796.368879 1350.293315,1797.077503 1349.578084,1785.331876 1338.854316,1785.980383 1340.408797,1811.580982"/>
    <poly id="159508051" type="building" color="255,150,150" fill="1" layer="-1.00" shape="1276.742436,1818.589723 1298.901462,1817.478068 1298.362313,1806.742180 1276.203252,1807.853836 1276.742436,1818.589723"/>
    <poly id="160321395" type="amenity" color="237,199,199" fill="1" layer="-1.00" shape="1113.337955,1895.949666 1130.357133,1894.627852 1129.983901,1889.843390 1135.675994,1889.395304 1134.591379,1875.563685 1130.075254,1875.917540 1128.990371,1862.030398 1110.795132,1863.446450 1113.337955,1895.949666"/>
    <poly id="160321395#1" type="building" color="255,150,150" fill="1" layer="-1.00" shape="1113.337955,1895.949666 1130.357133,1894.627852 1129.983901,1889.843390 1135.675994,1889.395304 1134.591379,1875.563685 1130.075254,1875.917540 1128.990371,1862.030398 1110.795132,1863.446450 1113.337955,1895.949666"/>
    <poly id="160321575" type="building" color="255,150,150" fill="1" layer="-1.00" shape="1166.005937,1804.826433 1159.435674,1804.412342 1155.040697,1802.689025 1152.839277,1800.078379 1151.951152,1797.028627 1165.534906,1796.522194 1166.005937,1804.826433"/>
    <poly id="160321578" type="building" color="255,150,150" fill="1" layer="-1.00" shape="1224.155002,1797.197814 1223.692154,1787.094556 1265.520087,1785.182179 1265.982873,1795.285439 1224.155002,1797.197814"/>
    <poly id="160321579" type="building" color="255,150,150" fill="1" layer="-1.00" shape="1166.297312,1823.847635 1155.632280,1824.818198 1154.703319,1814.639345 1165.368366,1813.668781 1166.297312,1823.847635"/>
    <poly id="160321680" type="building" color="255,150,150" fill="1" layer="-1.00" shape="1301.743257,1804.672369 1288.942815,1804.963967 1288.666248,1792.694419 1295.977299,1792.527804 1295.834152,1786.220927 1279.504723,1786.584167 1279.402196,1782.020560 1301.229229,1781.532299 1301.743257,1804.672369"/>
    <poly id="160321757" type="building" color="255,150,150" fill="1" layer="-1.00" shape="1184.740182,1485.677382 1184.684206,1478.803766 1197.379045,1478.512463 1197.223977,1471.406099 1184.022595,1471.699721 1183.828836,1463.283169 1209.062786,1462.579143 1209.794873,1485.096332 1196.159501,1485.169820 1184.740182,1485.677382"/>
    <poly id="160321858" type="building" color="255,150,150" fill="1" layer="-1.00" shape="1263.230939,1503.941270 1262.656812,1490.929064 1280.194199,1490.149401 1280.776463,1503.161570 1263.230939,1503.941270"/>
    <poly id="160321858#1" type="shop" color="237,199,255" fill="1" layer="-1.00" shape="1263.230939,1503.941270 1262.656812,1490.929064 1280.194199,1490.149401 1280.776463,1503.161570 1263.230939,1503.941270"/>
    <poly id="160321860" type="building" color="255,150,150" fill="1" layer="-1.00" shape="1296.758737,1512.516624 1296.026639,1495.307522 1284.721557,1495.781083 1284.420282,1488.841958 1300.038277,1488.182152 1301.063453,1512.330417 1296.758737,1512.516624"/>
    <poly id="160322190" type="building" color="255,150,150" fill="1" layer="-1.00" shape="1189.823988,1227.289840 1175.366481,1228.144463 1174.986184,1221.816469 1177.673495,1221.659803 1177.204838,1213.877485 1188.983230,1213.179490 1189.823988,1227.289840"/>
    <poly id="160322472" type="building" color="255,150,150" fill="1" layer="-1.00" shape="1228.936199,1277.560043 1226.315439,1279.759668 1220.007899,1279.732981 1218.420313,1277.386023 1213.378419,1277.198088 1211.000822,1275.398880 1213.617618,1272.333093 1213.566052,1269.990216 1211.155881,1270.001239 1211.133890,1265.192962 1212.879290,1264.529797 1212.867305,1261.909119 1213.072915,1258.632263 1222.711636,1258.155102 1222.552807,1260.943133 1228.635762,1260.093569 1228.936199,1277.560043"/>
    <poly id="160322477" type="building" color="255,150,150" fill="1" layer="-1.00" shape="1217.718851,1293.724389 1217.054146,1280.579347 1221.701945,1280.347104 1222.366641,1293.492146 1217.718851,1293.724389"/>
    <poly id="160322619" type="building" color="255,150,150" fill="1" layer="-1.00" shape="1229.973573,1147.018417 1229.488729,1135.682637 1241.660293,1135.171718 1242.136946,1146.507536 1229.973573,1147.018417"/>
    <poly id="160401009" type="leisure" color="207,245,201" fill="1" layer="-2.00" shape="609.729507,1456.207445 630.425400,1454.711801 627.448329,1413.693396 606.752261,1415.177944 609.729507,1456.207445"/>
    <poly id="160401009#1" type="sport" color="79,230,125" fill="1" layer="-2.00" shape="609.729507,1456.207445 630.425400,1454.711801 627.448329,1413.693396 606.752261,1415.177944 609.729507,1456.207445"/>
    <poly id="160403082" type="building" color="255,150,150" fill="1" layer="-1.00" shape="494.729298,1706.191910 506.044292,1706.172299 505.976140,1693.346554 494.433520,1693.611536 494.729298,1706.191910"/>
    <poly id="160403095" type="leisure" color="207,245,201" fill="1" layer="-2.00" shape="512.570538,1714.614756 564.733860,1712.783061 563.896352,1689.133713 511.732851,1690.965413 512.570538,1714.614756"/>
    <poly id="160403095#1" type="sport" color="79,230,125" fill="1" layer="-2.00" shape="512.570538,1714.614756 564.733860,1712.783061 563.896352,1689.133713 511.732851,1690.965413 512.570538,1714.614756"/>
    <poly id="160706256" type="building" color="255,150,150" fill="1" layer="-1.00" shape="1275.790457,1635.098272 1302.570343,1633.143788 1302.598565,1632.166437 1301.029148,1612.284893 1282.955305,1613.599986 1283.355992,1619.050615 1291.098395,1618.482256 1291.524851,1624.210388 1285.644527,1624.636992 1285.409808,1621.539823 1274.849741,1622.309833 1275.790457,1635.098272"/>
    <poly id="160706258" type="building" color="255,150,150" fill="1" layer="-1.00" shape="1179.638695,1568.797978 1189.757061,1567.896587 1195.782654,1634.908712 1197.452681,1653.501617 1187.334440,1654.402997 1179.638695,1568.797978"/>
    <poly id="160706259" type="building" color="255,150,150" fill="1" layer="-1.00" shape="1200.360849,1601.662188 1230.668523,1599.335931 1228.931688,1576.834434 1198.623965,1579.171803 1200.360849,1601.662188"/>
    <poly id="160706260" type="building" color="255,150,150" fill="1" layer="-1.00" shape="1296.579122,1585.975705 1329.949570,1583.424925 1329.037275,1569.681338 1295.520111,1572.321630 1296.579122,1585.975705"/>
    <poly id="160706261" type="building" color="255,150,150" fill="1" layer="-1.00" shape="1273.233309,1590.357589 1293.928618,1588.797311 1292.694303,1572.534407 1271.998945,1574.094689 1273.233309,1590.357589"/>
    <poly id="160706262" type="building" color="255,150,150" fill="1" layer="-1.00" shape="1264.720206,1615.382264 1282.955305,1613.599986 1301.029148,1612.284893 1331.974444,1610.045013 1333.223536,1629.572668 1333.775790,1636.022042 1333.850102,1637.987253 1351.377181,1636.819146 1346.662140,1563.038108 1328.694721,1564.430328 1329.037275,1569.681338 1329.949570,1583.424925 1330.581557,1593.027698 1262.892132,1597.922756 1264.720206,1615.382264"/>
    <poly id="160706263" type="building" color="255,150,150" fill="1" layer="-1.00" shape="1236.810347,1598.919189 1254.664755,1597.849284 1254.073003,1588.135285 1236.218569,1589.205191 1236.810347,1598.919189"/>
    <poly id="160706264" type="building" color="255,150,150" fill="1" layer="-1.00" shape="1220.279557,1623.236547 1239.555774,1622.237834 1240.791986,1646.040885 1221.523954,1647.028453 1220.279557,1623.236547"/>
    <poly id="160706265" type="building" color="255,150,150" fill="1" layer="-1.00" shape="1179.427335,1661.812788 1178.972822,1655.329663 1181.880340,1655.127569 1220.094490,1652.443029 1219.744855,1647.447466 1221.523954,1647.028453 1240.791986,1646.040885 1249.252826,1645.369251 1248.073521,1628.650805 1243.826624,1628.958934 1242.263431,1606.900832 1256.490738,1605.903031 1258.333471,1631.935378 1266.533307,1631.353797 1267.476320,1644.641941 1312.493782,1641.471557 1313.262529,1652.395179 1179.427335,1661.812788"/>
    <poly id="160706266" type="building" color="255,150,150" fill="1" layer="-1.00" shape="1325.930416,1651.637831 1325.578934,1646.220289 1325.209847,1640.525207 1312.493782,1641.471557 1313.262529,1652.395179 1325.930416,1651.637831"/>
    <poly id="160706692" type="building" color="255,150,150" fill="1" layer="-1.00" shape="1389.264612,1583.821182 1405.218316,1583.371077 1404.926178,1573.022731 1400.057535,1573.155913 1399.707535,1560.864490 1408.080594,1560.626540 1407.905576,1554.475276 1385.171685,1555.122784 1385.365033,1561.707051 1391.581537,1561.534415 1391.902447,1572.815432 1388.953535,1572.906578 1389.264612,1583.821182"/>
    <poly id="160706694" type="building" color="255,150,150" fill="1" layer="-1.00" shape="1332.457944,1737.670312 1368.258361,1736.063650 1367.549519,1720.331370 1331.749021,1721.938034 1332.457944,1737.670312"/>
    <poly id="162520034" type="amenity" color="237,199,199" fill="1" layer="-1.00" shape="849.806277,1209.054516 849.015177,1195.232697 837.898258,1195.861584 837.596370,1190.654829 865.180353,1189.083607 866.273287,1208.112185 849.806277,1209.054516"/>
    <poly id="162520034#1" type="building" color="255,150,150" fill="1" layer="-1.00" shape="849.806277,1209.054516 849.015177,1195.232697 837.898258,1195.861584 837.596370,1190.654829 865.180353,1189.083607 866.273287,1208.112185 849.806277,1209.054516"/>
    <poly id="162520098" type="amenity" color="237,199,199" fill="1" layer="-1.00" shape="864.878679,1187.452596 856.556870,1188.268416 856.094058,1183.595435 852.786575,1183.921667 852.443536,1180.414137 855.971513,1180.064674 855.294328,1173.205039 863.387442,1172.401380 864.878679,1187.452596"/>
    <poly id="162520098#1" type="building" color="255,150,150" fill="1" layer="-1.00" shape="864.878679,1187.452596 856.556870,1188.268416 856.094058,1183.595435 852.786575,1183.921667 852.443536,1180.414137 855.971513,1180.064674 855.294328,1173.205039 863.387442,1172.401380 864.878679,1187.452596"/>
    <poly id="162520099" type="building" color="255,150,150" fill="1" layer="-1.00" shape="896.374085,1295.068043 895.975207,1286.541396 902.967388,1286.209270 903.366258,1294.735917 896.374085,1295.068043"/>
    <poly id="162520100" type="building" color="255,150,150" fill="1" layer="-1.00" shape="889.587847,1304.605106 888.891031,1297.023745 903.779068,1295.666814 904.475816,1303.237072 889.587847,1304.605106"/>
    <poly id="162520101" type="building" color="255,150,150" fill="1" layer="-1.00" shape="934.259552,1162.290704 919.307756,1164.058737 918.823191,1159.974407 914.568771,1160.482658 913.990691,1155.610319 918.245166,1155.113173 917.548195,1149.264160 932.500023,1147.496123 934.259552,1162.290704"/>
    <poly id="162520102" type="building" color="255,150,150" fill="1" layer="-1.00" shape="922.300075,1175.105307 921.726605,1167.689947 937.906382,1166.449284 936.950541,1154.071841 944.382974,1153.504527 945.912247,1173.297333 922.300075,1175.105307"/>
    <poly id="162520103" type="building" color="255,150,150" fill="1" layer="-1.00" shape="844.719379,1269.788010 858.058491,1269.159960 857.478906,1256.902937 844.139771,1257.530988 844.719379,1269.788010"/>
    <poly id="167490048" type="building" color="255,150,150" fill="1" layer="-1.00" shape="1625.405341,1462.319712 1624.360752,1451.719348 1686.481546,1447.197195 1687.626430,1458.319041 1625.405341,1462.319712"/>
    <poly id="167491584" type="building" color="255,150,150" fill="1" layer="-1.00" shape="1430.180185,1533.652509 1488.360477,1530.545663 1533.177999,1528.143869 1535.185102,1565.446903 1432.187795,1570.944412 1430.180185,1533.652509"/>
    <poly id="167491584#1" type="shop" color="237,199,255" fill="1" layer="-1.00" shape="1430.180185,1533.652509 1488.360477,1530.545663 1533.177999,1528.143869 1535.185102,1565.446903 1432.187795,1570.944412 1430.180185,1533.652509"/>
    <poly id="167491928" type="building" color="255,150,150" fill="1" layer="-1.00" shape="1597.529888,1496.814932 1618.800638,1495.963742 1617.437841,1461.933697 1596.158817,1462.784928 1597.529888,1496.814932"/>
    <poly id="167491928#1" type="leisure" color="207,245,201" fill="1" layer="-2.00" shape="1597.529888,1496.814932 1618.800638,1495.963742 1617.437841,1461.933697 1596.158817,1462.784928 1597.529888,1496.814932"/>
    <poly id="167491928#2" type="sport" color="79,230,125" fill="1" layer="-2.00" shape="1597.529888,1496.814932 1618.800638,1495.963742 1617.437841,1461.933697 1596.158817,1462.784928 1597.529888,1496.814932"/>
    <poly id="167492173" type="amenity" color="237,199,199" fill="1" layer="-1.00" shape="1544.721882,1473.933524 1543.089679,1445.446004 1579.815000,1443.869588 1580.782735,1471.793774 1544.721882,1473.933524"/>
    <poly id="167492980" type="building" color="255,150,150" fill="1" layer="-1.00" shape="1588.135298,1401.189571 1587.491863,1388.977205 1595.709005,1388.540304 1596.352475,1400.763775 1588.135298,1401.189571"/>
    <poly id="167492980#1" type="shop" color="237,199,255" fill="1" layer="-1.00" shape="1588.135298,1401.189571 1587.491863,1388.977205 1595.709005,1388.540304 1596.352475,1400.763775 1588.135298,1401.189571"/>
    <poly id="167714143" type="building" color="255,150,150" fill="1" layer="-1.00" shape="530.982569,1617.916792 543.537525,1617.469467 543.113091,1605.311677 530.549891,1605.747937 530.982569,1617.916792"/>
    <poly id="167714164" type="building" color="255,150,150" fill="1" layer="-1.00" shape="372.840926,1861.897568 385.247599,1861.284072 384.850873,1853.345987 372.444186,1853.959483 372.840926,1861.897568"/>
    <poly id="167714168" type="building" color="255,150,150" fill="1" layer="-1.00" shape="355.894048,1897.723599 361.684852,1897.429876 361.198060,1887.715443 355.407195,1887.998062 355.894048,1897.723599"/>
    <poly id="167714199" type="building" color="255,150,150" fill="1" layer="-1.00" shape="513.912871,1647.002357 530.159979,1646.437802 529.849801,1637.755286 513.602724,1638.330946 513.912871,1647.002357"/>
    <poly id="167714206" type="building" color="255,150,150" fill="1" layer="-1.00" shape="365.347553,1891.060711 377.149798,1890.483355 376.744425,1882.445367 364.942219,1883.033829 365.347553,1891.060711"/>
    <poly id="167714213" type="building" color="255,150,150" fill="1" layer="-1.00" shape="609.528228,1674.173649 620.882362,1673.776480 620.440278,1661.307834 609.086124,1661.705003 609.528228,1674.173649"/>