<?xml version="1.0" encoding="UTF-8"?>

<!-- generated on 2026-04-02T22:26:42.414774+06:00 by Eclipse SUMO netedit 1.26.0
<neteditConfiguration xmlns:xsi="http://www.w3.org/2001/XMLSchema-instance" xsi:noNamespaceSchemaLocation="http://sumo.dlr.de/xsd/neteditConfiguration.xsd">

    <input>
        <sumo-net-file value=".\data\raw_data\scenarios\city_006.net.xml"/>
    </input>

    <output>
        <output-file value=".\data\raw_data\scenarios\city_006.net.xml"/>
    </output>

    <processing>
        <geometry.min-radius.fix.railways value="false"/>
        <geometry.avoid-overlap value="false"/>
        <geometry.max-grade.fix value="false"/>
        <offset.disable-normalization value="true"/>
        <lefthand value="0"/>
    </processing>

    <junctions>
        <no-turnarounds value="true"/>
        <junctions.corner-detail value="5"/>
        <junctions.limit-turn-speed value="5.50"/>
        <rectangular-lane-cut value="0"/>
    </junctions>

    <pedestrian>
        <walkingareas value="0"/>
    </pedestrian>

</neteditConfiguration>
-->

<net version="1.20" junctionCornerDetail="5" limitTurnSpeed="5.50" avoidOverlap="0" xmlns:xsi="http://www.w3.org/2001/XMLSchema-instance" xsi:noNamespaceSchemaLocation="http://sumo.dlr.de/xsd/net_file.xsd">

    <location netOffset="-467311.09,-4743445.82" convBoundary="219.62,713.28,2355.84,2619.22" origBoundary="74.599875,42.842920,74.628731,42.875493" projParameter="+proj=utm +zone=43 +ellps=WGS84 +datum=WGS84 +units=m +no_defs"/>

    <type id="highway.footway" priority="1" numLanes="1" speed="2.78" allow="pedestrian" oneway="1" width="2.00"/>
    <type id="highway.primary" priority="12" numLanes="2" speed="27.78" disallow="tram rail_urban rail rail_electric rail_fast ship container cable_car subway aircraft wheelchair scooter drone" oneway="0"/>
    <type id="highway.residential" priority="3" numLanes="1" speed="13.89" disallow="tram rail_urban rail rail_electric rail_fast ship container cable_car subway aircraft wheelchair scooter drone" oneway="0"/>
    <type id="highway.secondary" priority="11" numLanes="1" speed="27.78" disallow="tram rail_urban rail rail_electric rail_fast ship container cable_car subway aircraft wheelchair scooter drone" oneway="0"/>
    <type id="highway.service" priority="1" numLanes="1" speed="5.56" allow="pedestrian delivery bicycle" oneway="0"/>
    <type id="highway.tertiary" priority="10" numLanes="1" speed="22.22" disallow="tram rail_urban rail rail_electric rail_fast ship container cable_car subway aircraft wheelchair scooter drone" oneway="0"/>
    <type id="highway.unclassified" priority="4" numLanes="1" speed="13.89" disallow="tram rail_urban rail rail_electric rail_fast ship container cable_car subway aircraft wheelchair scooter drone" oneway="0"/>

    <edge id=":10084026823_0" function="internal">
        <lane id=":10084026823_0_0" index="0" disallow="tram rail_urban rail rail_electric rail_fast ship container cable_car subway aircraft wheelchair scooter drone" speed="16.67" length="0.71" shape="659.44,1866.44 660.15,1866.41"/>
    </edge>
    <edge id=":10084026823_1" function="internal">
        <lane id=":10084026823_1_0" index="0" disallow="tram rail_urban rail rail_electric rail_fast ship container cable_car subway aircraft wheelchair scooter drone" speed="16.67" length="0.71" shape="660.01,1863.21 659.30,1863.24"/>
    </edge>
    <edge id=":10084026839_0" function="internal">
        <lane id=":10084026839_0_0" index="0" allow="private pedestrian passenger taxi bus coach delivery bicycle evehicle" speed="6.58" length="9.12" shape="795.25,1866.44 794.76,1863.97 793.61,1862.24 791.80,1861.25 789.35,1861.00"/>
    </edge>
    <edge id=":10084026839_1" function="internal">
        <lane id=":10084026839_1_0" index="0" allow="private pedestrian passenger taxi bus coach delivery bicycle evehicle" speed="7.97" length="14.26" shape="795.25,1866.44 795.58,1862.53 797.08,1859.69 799.75,1857.91 803.60,1857.20"/>
    </edge>
    <edge id=":10084026839_2" function="internal">
        <lane id=":10084026839_2_0" index="0" allow="private pedestrian passenger taxi bus coach delivery bicycle evehicle" speed="6.47" length="9.03" shape="803.74,1860.40 801.30,1860.85 799.60,1861.98 798.65,1863.78 798.45,1866.25"/>
    </edge>
    <edge id=":10084026839_3" function="internal">
        <lane id=":10084026839_3_0" index="0" disallow="tram rail_urban rail rail_electric rail_fast ship container cable_car subway aircraft wheelchair scooter drone" speed="16.67" length="14.40" shape="803.74,1860.40 789.35,1861.00"/>
    </edge>
    <edge id=":10084026839_4" function="internal">
        <lane id=":10084026839_4_0" index="0" disallow="tram rail_urban rail rail_electric rail_fast ship container cable_car subway aircraft wheelchair scooter drone" speed="16.67" length="14.40" shape="789.21,1857.80 803.60,1857.20"/>
    </edge>
    <edge id=":10084026839_5" function="internal">
        <lane id=":10084026839_5_0" index="0" allow="private pedestrian passenger taxi bus coach delivery bicycle evehicle" speed="8.06" length="4.04" shape="789.21,1857.80 793.06,1858.19 793.21,1858.28"/>
    </edge>
    <edge id=":10084026839_6" function="internal">
        <lane id=":10084026839_6_0" index="0" allow="private pedestrian passenger taxi bus coach delivery bicycle evehicle" speed="8.06" length="10.18" shape="793.21,1858.28 795.88,1859.73 797.67,1862.42 798.45,1866.25"/>
    </edge>
    <edge id=":10084026886_0" function="internal">
        <lane id=":10084026886_0_0" index="0" disallow="tram rail_urban rail rail_electric rail_fast ship container cable_car subway aircraft wheelchair scooter drone" speed="16.67" length="14.40" shape="662.64,1807.39 662.19,1793.00"/>
    </edge>
    <edge id=":10084026886_1" function="internal">
        <lane id=":10084026886_1_0" index="0" allow="private passenger taxi bus coach delivery evehicle" speed="7.99" length="4.07" shape="662.64,1807.39 663.07,1803.52 663.15,1803.37"/>
    </edge>
    <edge id=":10084026886_6" function="internal">
        <lane id=":10084026886_6_0" index="0" allow="private passenger taxi bus coach delivery evehicle" speed="7.99" length="10.14" shape="663.15,1803.37 664.63,1800.72 667.34,1798.99 671.18,1798.34"/>
    </edge>
    <edge id=":10084026886_2" function="internal">
        <lane id=":10084026886_2_0" index="0" allow="private passenger taxi bus coach delivery evehicle" speed="6.50" length="9.03" shape="671.26,1801.54 668.82,1801.95 667.10,1803.05 666.11,1804.83 665.83,1807.29"/>
    </edge>
    <edge id=":10084026886_3" function="internal">
        <lane id=":10084026886_3_0" index="0" allow="private passenger taxi bus coach delivery evehicle" speed="8.02" length="14.20" shape="671.26,1801.54 667.40,1801.09 664.59,1799.52 662.86,1796.82 662.19,1793.00"/>
    </edge>
    <edge id=":10084026886_4" function="internal">
        <lane id=":10084026886_4_0" index="0" allow="private passenger taxi bus coach delivery evehicle" speed="6.53" length="9.06" shape="665.38,1792.90 665.81,1795.33 666.92,1797.05 668.71,1798.06 671.18,1798.34"/>
    </edge>
    <edge id=":10084026886_5" function="internal">
        <lane id=":10084026886_5_0" index="0" disallow="tram rail_urban rail rail_electric rail_fast ship container cable_car subway aircraft wheelchair scooter drone" speed="16.67" length="14.40" shape="665.38,1792.90 665.83,1807.29"/>
    </edge>
    <edge id=":10121789739_0" function="internal">
        <lane id=":10121789739_0_0" index="0" disallow="tram rail_urban rail rail_electric rail_fast ship container cable_car subway aircraft wheelchair scooter drone" speed="16.67" length="0.23" shape="804.77,1052.90 804.75,1052.70"/>
        <lane id=":10121789739_0_1" index="1" disallow="tram rail_urban rail rail_electric rail_fast ship container cable_car subway aircraft wheelchair scooter drone" speed="16.67" length="0.23" shape="807.96,1052.65 807.93,1052.39"/>
    </edge>
    <edge id=":10121789739_2" function="internal">
        <lane id=":10121789739_2_0" index="0" disallow="tram rail_urban rail rail_electric rail_fast ship container cable_car subway aircraft wheelchair scooter drone" speed="16.67" length="0.34" shape="814.30,1051.77 814.34,1052.14"/>
        <lane id=":10121789739_2_1" index="1" disallow="tram rail_urban rail rail_electric rail_fast ship container cable_car subway aircraft wheelchair scooter drone" speed="16.67" length="0.34" shape="811.12,1052.08 811.15,1052.39"/>
    </edge>
    <edge id=":1012738230_0" function="internal">
        <lane id=":1012738230_0_0" index="0" allow="private passenger taxi bus coach delivery evehicle" speed="6.55" length="8.97" shape="1389.97,1748.14 1387.55,1748.59 1385.84,1749.70 1384.83,1751.46 1384.53,1753.88"/>
    </edge>
    <edge id=":1012738230_1" function="internal">
        <lane id=":1012738230_1_0" index="0" allow="private passenger taxi bus coach delivery evehicle" speed="6.51" length="8.94" shape="1383.98,1739.68 1384.47,1742.07 1385.61,1743.75 1387.39,1744.70 1389.83,1744.94"/>
    </edge>
    <edge id=":1012738230_2" function="internal">
        <lane id=":1012738230_2_0" index="0" disallow="tram rail_urban rail rail_electric rail_fast ship container cable_car subway aircraft wheelchair scooter drone" speed="16.67" length="14.08" shape="1383.98,1739.68 1384.53,1753.88"/>
        <lane id=":1012738230_2_1" index="1" disallow="tram rail_urban rail rail_electric rail_fast ship container cable_car subway aircraft wheelchair scooter drone" speed="16.67" length="14.08" shape="1380.79,1739.87 1381.33,1753.94"/>
        <lane id=":1012738230_2_2" index="2" disallow="tram rail_urban rail rail_electric rail_fast ship container cable_car subway aircraft wheelchair scooter drone" speed="16.67" length="14.08" shape="1377.59,1740.06 1378.13,1753.99"/>
    </edge>
    <edge id=":1025256935_0" function="internal">
        <lane id=":1025256935_0_0" index="0" disallow="tram rail_urban rail rail_electric rail_fast ship container cable_car subway aircraft wheelchair scooter drone" speed="16.67" length="9.18" shape="1379.01,1652.87 1379.34,1661.89"/>
        <lane id=":1025256935_0_1" index="1" disallow="tram rail_urban rail rail_electric rail_fast ship container cable_car subway aircraft wheelchair scooter drone" speed="16.67" length="9.18" shape="1375.81,1652.91 1376.15,1662.08"/>
        <lane id=":1025256935_0_2" index="2" disallow="tram rail_urban rail rail_electric rail_fast ship container cable_car subway aircraft wheelchair scooter drone" speed="16.67" length="9.18" shape="1372.61,1652.94 1372.95,1662.27"/>
    </edge>
    <edge id=":1025256935_3" function="internal">
        <lane id=":1025256935_3_0" index="0" disallow="tram rail_urban rail rail_electric rail_fast ship container cable_car subway aircraft wheelchair scooter drone" speed="6.26" length="7.77" shape="1372.61,1652.94 1372.45,1655.67 1371.90,1657.65 1370.96,1658.90 1369.63,1659.41"/>
    </edge>
    <edge id=":1025256935_4" function="internal">
        <lane id=":1025256935_4_0" index="0" disallow="tram rail_urban rail rail_electric rail_fast ship container cable_car subway aircraft wheelchair scooter drone" speed="6.84" length="10.31" shape="1369.34,1656.22 1372.18,1656.37 1374.26,1657.40 1375.58,1659.30 1376.15,1662.08"/>
        <lane id=":1025256935_4_1" index="1" disallow="tram rail_urban rail rail_electric rail_fast ship container cable_car subway aircraft wheelchair scooter drone" speed="6.05" length="7.84" shape="1369.34,1656.22 1370.78,1656.49 1371.86,1657.59 1372.59,1659.51 1372.95,1662.27"/>
    </edge>
    <edge id=":1025256935_6" function="internal">
        <lane id=":1025256935_6_0" index="0" disallow="tram rail_urban rail rail_electric rail_fast ship container cable_car subway aircraft wheelchair scooter drone" speed="3.65" length="4.67" shape="1369.34,1656.22 1370.61,1656.91 1371.08,1657.67 1370.75,1658.50 1369.63,1659.41"/>
    </edge>
    <edge id=":10281697281_0" function="internal">
        <lane id=":10281697281_0_0" index="0" disallow="tram rail_urban rail rail_electric rail_fast ship container cable_car subway aircraft wheelchair scooter drone" speed="16.67" length="0.30" shape="1764.62,1507.65 1764.32,1507.67"/>
        <lane id=":10281697281_0_1" index="1" disallow="tram rail_urban rail rail_electric rail_fast ship container cable_car subway aircraft wheelchair scooter drone" speed="16.67" length="0.30" shape="1764.44,1504.46 1764.14,1504.48"/>
    </edge>
    <edge id=":10281697281_2" function="internal">
        <lane id=":10281697281_2_0" index="0" disallow="tram rail_urban rail rail_electric rail_fast ship container cable_car subway aircraft wheelchair scooter drone" speed="16.67" length="0.30" shape="1763.60,1494.89 1763.90,1494.87"/>
        <lane id=":10281697281_2_1" index="1" disallow="tram rail_urban rail rail_electric rail_fast ship container cable_car subway aircraft wheelchair scooter drone" speed="16.67" length="0.30" shape="1763.78,1498.09 1764.08,1498.07"/>
        <lane id=":10281697281_2_2" index="2" disallow="tram rail_urban rail rail_electric rail_fast ship container cable_car subway aircraft wheelchair scooter drone" speed="16.67" length="0.30" shape="1763.96,1501.28 1764.26,1501.26"/>
    </edge>
    <edge id=":10281697304_0" function="internal">
        <lane id=":10281697304_0_0" index="0" disallow="tram rail_urban rail rail_electric rail_fast ship container cable_car subway aircraft wheelchair scooter drone" speed="16.67" length="0.29" shape="1625.52,1515.49 1625.23,1515.51"/>
        <lane id=":10281697304_0_1" index="1" disallow="tram rail_urban rail rail_electric rail_fast ship container cable_car subway aircraft wheelchair scooter drone" speed="16.67" length="0.29" shape="1625.34,1512.30 1625.05,1512.32"/>
    </edge>
    <edge id=":10281697304_2" function="internal">
        <lane id=":10281697304_2_0" index="0" disallow="tram rail_urban rail rail_electric rail_fast ship container cable_car subway aircraft wheelchair scooter drone" speed="16.67" length="0.31" shape="1624.48,1502.73 1624.80,1502.71"/>
        <lane id=":10281697304_2_1" index="1" disallow="tram rail_urban rail rail_electric rail_fast ship container cable_car subway aircraft wheelchair scooter drone" speed="16.67" length="0.31" shape="1624.67,1505.93 1624.98,1505.91"/>
        <lane id=":10281697304_2_2" index="2" disallow="tram rail_urban rail rail_electric rail_fast ship container cable_car subway aircraft wheelchair scooter drone" speed="16.67" length="0.31" shape="1624.86,1509.12 1625.16,1509.10"/>
    </edge>
    <edge id=":10281713113_0" function="internal">
        <lane id=":10281713113_0_0" index="0" disallow="tram rail_urban rail rail_electric rail_fast ship container cable_car subway aircraft wheelchair scooter drone" speed="16.67" length="0.10" shape="1703.35,1511.10 1703.35,1511.10"/>
        <lane id=":10281713113_0_1" index="1" disallow="tram rail_urban rail rail_electric rail_fast ship container cable_car subway aircraft wheelchair scooter drone" speed="16.67" length="0.10" shape="1703.17,1507.91 1703.17,1507.91"/>
    </edge>
    <edge id=":10281713113_2" function="internal">
        <lane id=":10281713113_2_0" index="0" disallow="tram rail_urban rail rail_electric rail_fast ship container cable_car subway aircraft wheelchair scooter drone" speed="16.67" length="0.10" shape="1702.63,1498.32 1702.63,1498.32"/>
        <lane id=":10281713113_2_1" index="1" disallow="tram rail_urban rail rail_electric rail_fast ship container cable_car subway aircraft wheelchair scooter drone" speed="16.67" length="0.10" shape="1702.81,1501.52 1702.81,1501.52"/>
        <lane id=":10281713113_2_2" index="2" disallow="tram rail_urban rail rail_electric rail_fast ship container cable_car subway aircraft wheelchair scooter drone" speed="16.67" length="0.10" shape="1702.99,1504.71 1702.99,1504.71"/>
    </edge>
    <edge id=":10281713114_0" function="internal">
        <lane id=":10281713114_0_0" index="0" allow="private passenger taxi bus coach delivery evehicle" speed="6.47" length="9.03" shape="1691.11,1407.27 1690.68,1404.83 1689.56,1403.12 1687.77,1402.16 1685.30,1401.93"/>
    </edge>
    <edge id=":10281713114_1" function="internal">
        <lane id=":10281713114_1_0" index="0" allow="private passenger taxi bus coach delivery evehicle" speed="8.06" length="14.22" shape="1691.11,1407.27 1691.53,1403.38 1693.07,1400.54 1695.73,1398.74 1699.52,1398.00"/>
    </edge>
    <edge id=":10281713114_2" function="internal">
        <lane id=":10281713114_2_0" index="0" allow="private passenger taxi bus coach delivery evehicle" speed="3.65" length="4.67" shape="1691.11,1407.27 1691.87,1406.04 1692.65,1405.62 1693.47,1405.99 1694.31,1407.17"/>
    </edge>
    <edge id=":10281713114_3" function="internal">
        <lane id=":10281713114_3_0" index="0" allow="private passenger taxi bus coach delivery evehicle" speed="6.58" length="9.13" shape="1699.68,1401.19 1697.26,1401.67 1695.56,1402.83 1694.57,1404.66 1694.31,1407.17"/>
    </edge>
    <edge id=":10281713114_4" function="internal">
        <lane id=":10281713114_4_0" index="0" disallow="tram rail_urban rail rail_electric rail_fast ship container cable_car subway aircraft wheelchair scooter drone" speed="16.67" length="14.40" shape="1699.68,1401.19 1685.30,1401.93"/>
    </edge>
    <edge id=":10281713114_5" function="internal">
        <lane id=":10281713114_5_0" index="0" disallow="tram rail_urban rail rail_electric rail_fast ship container cable_car subway aircraft wheelchair scooter drone" speed="16.67" length="14.40" shape="1685.14,1398.74 1699.52,1398.00"/>
    </edge>
    <edge id=":10281713114_6" function="internal">
        <lane id=":10281713114_6_0" index="0" allow="private passenger taxi bus coach delivery evehicle" speed="7.97" length="4.08" shape="1685.14,1398.74 1689.04,1399.09 1689.18,1399.17"/>
    </edge>
    <edge id=":10281713114_7" function="internal">
        <lane id=":10281713114_7_0" index="0" allow="private passenger taxi bus coach delivery evehicle" speed="7.97" length="10.18" shape="1689.18,1399.17 1691.87,1400.61 1693.62,1403.31 1694.31,1407.17"/>
    </edge>
    <edge id=":10281713121_0" function="internal">
        <lane id=":10281713121_0_0" index="0" allow="private passenger taxi bus coach delivery evehicle" speed="6.75" length="9.35" shape="1608.01,1411.82 1607.38,1409.28 1606.14,1407.50 1604.30,1406.49 1601.85,1406.25"/>
    </edge>
    <edge id=":10281713121_1" function="internal">
        <lane id=":10281713121_1_0" index="0" allow="private passenger taxi bus coach delivery evehicle" speed="7.90" length="14.43" shape="1608.01,1411.82 1608.13,1407.84 1609.52,1404.92 1612.17,1403.08 1616.08,1402.31"/>
    </edge>
    <edge id=":10281713121_2" function="internal">
        <lane id=":10281713121_2_0" index="0" allow="private passenger taxi bus coach delivery evehicle" speed="3.65" length="4.67" shape="1608.01,1411.82 1608.67,1410.54 1609.42,1410.05 1610.26,1410.36 1611.19,1411.46"/>
    </edge>
    <edge id=":10281713121_3" function="internal">
        <lane id=":10281713121_3_0" index="0" allow="private passenger taxi bus coach delivery evehicle" speed="6.38" length="9.04" shape="1616.24,1405.51 1613.79,1405.99 1612.13,1407.14 1611.27,1408.97 1611.19,1411.46"/>
    </edge>
    <edge id=":10281713121_4" function="internal">
        <lane id=":10281713121_4_0" index="0" disallow="tram rail_urban rail rail_electric rail_fast ship container cable_car subway aircraft wheelchair scooter drone" speed="16.67" length="14.41" shape="1616.24,1405.51 1601.85,1406.25"/>
    </edge>
    <edge id=":10281713121_5" function="internal">
        <lane id=":10281713121_5_0" index="0" disallow="tram rail_urban rail rail_electric rail_fast ship container cable_car subway aircraft wheelchair scooter drone" speed="16.67" length="14.41" shape="1601.69,1403.05 1616.08,1402.31"/>
    </edge>
    <edge id=":10281713121_6" function="internal">
        <lane id=":10281713121_6_0" index="0" allow="private passenger taxi bus coach delivery evehicle" speed="8.21" length="3.97" shape="1601.69,1403.05 1605.47,1403.41 1605.62,1403.49"/>
    </edge>
    <edge id=":10281713121_7" function="internal">
        <lane id=":10281713121_7_0" index="0" allow="private passenger taxi bus coach delivery evehicle" speed="8.21" length="10.32" shape="1605.62,1403.49 1608.31,1404.94 1610.22,1407.62 1611.19,1411.46"/>
    </edge>
    <edge id=":10281713123_0" function="internal">
        <lane id=":10281713123_0_0" index="0" disallow="tram rail_urban rail rail_electric rail_fast ship container cable_car subway aircraft wheelchair scooter drone" speed="16.67" length="14.40" shape="1583.34,1412.96 1582.15,1398.61"/>
    </edge>
    <edge id=":10281713123_1" function="internal">
        <lane id=":10281713123_1_0" index="0" disallow="tram rail_urban rail rail_electric rail_fast ship container cable_car subway aircraft wheelchair scooter drone" speed="7.95" length="4.09" shape="1583.34,1412.96 1583.57,1409.03 1583.64,1408.89"/>
    </edge>
    <edge id=":10281713123_2" function="internal">
        <lane id=":10281713123_2_0" index="0" disallow="tram rail_urban rail rail_electric rail_fast ship container cable_car subway aircraft wheelchair scooter drone" speed="3.65" length="1.44" shape="1583.34,1412.96 1584.04,1411.70"/>
    </edge>
    <edge id=":10281713123_9" function="internal">
        <lane id=":10281713123_9_0" index="0" disallow="tram rail_urban rail rail_electric rail_fast ship container cable_car subway aircraft wheelchair scooter drone" speed="7.95" length="10.22" shape="1583.64,1408.89 1585.02,1406.15 1587.67,1404.34 1591.54,1403.58"/>
    </edge>
    <edge id=":10281713123_10" function="internal">
        <lane id=":10281713123_10_0" index="0" disallow="tram rail_urban rail rail_electric rail_fast ship container cable_car subway aircraft wheelchair scooter drone" speed="3.65" length="3.23" shape="1584.04,1411.70 1584.80,1411.23 1585.63,1411.56 1586.53,1412.69"/>
    </edge>
    <edge id=":10281713123_3" function="internal">
        <lane id=":10281713123_3_0" index="0" disallow="tram rail_urban rail rail_electric rail_fast ship container cable_car subway aircraft wheelchair scooter drone" speed="6.44" length="9.03" shape="1591.70,1406.77 1589.26,1407.25 1587.59,1408.40 1586.68,1410.21 1586.53,1412.69"/>
    </edge>
    <edge id=":10281713123_4" function="internal">
        <lane id=":10281713123_4_0" index="0" disallow="tram rail_urban rail rail_electric rail_fast ship container cable_car subway aircraft wheelchair scooter drone" speed="8.10" length="14.24" shape="1591.70,1406.77 1587.79,1406.43 1584.89,1404.96 1583.01,1402.35 1582.15,1398.61"/>
    </edge>
    <edge id=":10281713123_5" function="internal">
        <lane id=":10281713123_5_0" index="0" disallow="tram rail_urban rail rail_electric rail_fast ship container cable_car subway aircraft wheelchair scooter drone" speed="3.65" length="4.67" shape="1591.70,1406.77 1590.46,1406.03 1590.02,1405.26 1590.38,1404.44 1591.54,1403.58"/>
    </edge>
    <edge id=":10281713123_6" function="internal">
        <lane id=":10281713123_6_0" index="0" disallow="tram rail_urban rail rail_electric rail_fast ship container cable_car subway aircraft wheelchair scooter drone" speed="6.63" length="9.19" shape="1585.34,1398.34 1585.90,1400.74 1587.12,1402.42 1589.00,1403.36 1591.54,1403.58"/>
    </edge>
    <edge id=":10281713123_7" function="internal">
        <lane id=":10281713123_7_0" index="0" disallow="tram rail_urban rail rail_electric rail_fast ship container cable_car subway aircraft wheelchair scooter drone" speed="16.67" length="14.40" shape="1585.34,1398.34 1586.53,1412.69"/>
    </edge>
    <edge id=":10281713123_8" function="internal">
        <lane id=":10281713123_8_0" index="0" disallow="tram rail_urban rail rail_electric rail_fast ship container cable_car subway aircraft wheelchair scooter drone" speed="3.65" length="1.44" shape="1585.34,1398.34 1584.64,1399.60"/>
    </edge>
    <edge id=":10281713123_11" function="internal">
        <lane id=":10281713123_11_0" index="0" disallow="tram rail_urban rail rail_electric rail_fast ship container cable_car subway aircraft wheelchair scooter drone" speed="3.65" length="3.23" shape="1584.64,1399.60 1583.88,1400.07 1583.04,1399.73 1582.15,1398.61"/>
    </edge>
    <edge id=":10566908835_0" function="internal">
        <lane id=":10566908835_0_0" index="0" disallow="tram rail_urban rail rail_electric rail_fast ship container cable_car subway aircraft wheelchair scooter drone" speed="16.67" length="4.15" shape="485.16,1873.73 481.01,1873.91"/>
    </edge>
    <edge id=":10566908835_1" function="internal">
        <lane id=":10566908835_1_0" index="0" disallow="tram rail_urban rail rail_electric rail_fast ship container cable_car subway aircraft wheelchair scooter drone" speed="16.67" length="4.15" shape="480.88,1870.71 485.02,1870.54"/>
    </edge>
    <edge id=":10942297034_0" function="internal">
        <lane id=":10942297034_0_0" index="0" allow="private passenger taxi bus coach delivery" speed="16.67" length="0.79" shape="439.74,1328.52 440.53,1328.48"/>
    </edge>
    <edge id=":10942297034_1" function="internal">
        <lane id=":10942297034_1_0" index="0" allow="private passenger taxi bus coach delivery" speed="16.67" length="0.78" shape="440.41,1325.29 439.63,1325.32"/>
    </edge>
    <edge id=":10942297049_0" function="internal">
        <lane id=":10942297049_0_0" index="0" allow="pedestrian delivery bicycle" speed="16.67" length="0.10" shape="447.34,1470.42 447.34,1470.42"/>
    </edge>
    <edge id=":10942297049_1" function="internal">
        <lane id=":10942297049_1_0" index="0" allow="pedestrian delivery bicycle" speed="3.65" length="2.34" shape="447.34,1470.42 446.11,1469.66 445.69,1468.87"/>
    </edge>
    <edge id=":10942297049_3" function="internal">
        <lane id=":10942297049_3_0" index="0" allow="pedestrian delivery bicycle" speed="3.65" length="2.34" shape="445.69,1468.87 446.07,1468.06 447.24,1467.22"/>
    </edge>
    <edge id=":10942297049_2" function="internal">
        <lane id=":10942297049_2_0" index="0" allow="pedestrian delivery bicycle" speed="16.67" length="0.10" shape="447.24,1467.22 447.24,1467.22"/>
    </edge>
    <edge id=":10942297051_0" function="internal">
        <lane id=":10942297051_0_0" index="0" allow="pedestrian delivery bicycle" speed="5.08" length="5.05" shape="450.94,1473.39 450.68,1472.05 450.05,1471.11 449.04,1470.56 447.65,1470.41"/>
    </edge>
    <edge id=":10942297051_1" function="internal">
        <lane id=":10942297051_1_0" index="0" disallow="tram rail_urban rail rail_electric rail_fast ship container cable_car subway aircraft wheelchair scooter drone" speed="16.67" length="9.40" shape="450.94,1473.39 450.54,1464.00"/>
    </edge>
    <edge id=":10942297051_2" function="internal">
        <lane id=":10942297051_2_0" index="0" disallow="tram rail_urban rail rail_electric rail_fast ship container cable_car subway aircraft wheelchair scooter drone" speed="16.67" length="9.41" shape="453.73,1463.86 454.13,1473.26"/>
    </edge>
    <edge id=":10942297051_3" function="internal">
        <lane id=":10942297051_3_0" index="0" allow="pedestrian delivery bicycle" speed="6.85" length="3.28" shape="453.73,1463.86 453.46,1466.66 453.23,1467.07"/>
    </edge>
    <edge id=":10942297051_7" function="internal">
        <lane id=":10942297051_7_0" index="0" allow="pedestrian delivery bicycle" speed="6.85" length="6.95" shape="453.23,1467.07 452.35,1468.68 450.41,1469.93 447.65,1470.41"/>
    </edge>
    <edge id=":10942297051_4" function="internal">
        <lane id=":10942297051_4_0" index="0" allow="pedestrian delivery bicycle" speed="5.03" length="5.02" shape="447.55,1467.21 448.91,1466.98 449.86,1466.36 450.40,1465.37 450.54,1464.00"/>
    </edge>
    <edge id=":10942297051_5" function="internal">
        <lane id=":10942297051_5_0" index="0" allow="pedestrian delivery bicycle" speed="6.89" length="10.17" shape="447.55,1467.21 450.33,1467.52 452.36,1468.63 453.62,1470.54 454.13,1473.26"/>
    </edge>
    <edge id=":10942297051_6" function="internal">
        <lane id=":10942297051_6_0" index="0" allow="pedestrian delivery bicycle" speed="3.65" length="4.67" shape="447.55,1467.21 448.77,1467.98 449.20,1468.76 448.82,1469.57 447.65,1470.41"/>
    </edge>
    <edge id=":11575277113_0" function="internal">
        <lane id=":11575277113_0_0" index="0" disallow="tram rail_urban rail rail_electric rail_fast ship container cable_car subway aircraft wheelchair scooter drone" speed="16.67" length="0.30" shape="1080.48,1813.08 1080.46,1812.79"/>
        <lane id=":11575277113_0_1" index="1" disallow="tram rail_urban rail rail_electric rail_fast ship container cable_car subway aircraft wheelchair scooter drone" speed="16.67" length="0.30" shape="1083.67,1812.86 1083.65,1812.56"/>
        <lane id=":11575277113_0_2" index="2" disallow="tram rail_urban rail rail_electric rail_fast ship container cable_car subway aircraft wheelchair scooter drone" speed="16.67" length="0.30" shape="1086.86,1812.64 1086.84,1812.33"/>
    </edge>
    <edge id=":11575277122_0" function="internal">
        <lane id=":11575277122_0_0" index="0" disallow="tram rail_urban rail rail_electric rail_fast ship container cable_car subway aircraft wheelchair scooter drone" speed="16.67" length="0.10" shape="1032.42,1850.15 1032.42,1850.15"/>
        <lane id=":11575277122_0_1" index="1" disallow="tram rail_urban rail rail_electric rail_fast ship container cable_car subway aircraft wheelchair scooter drone" speed="16.67" length="0.10" shape="1032.21,1846.96 1032.21,1846.96"/>
    </edge>
    <edge id=":11575277122_2" function="internal">
        <lane id=":11575277122_2_0" index="0" disallow="tram rail_urban rail rail_electric rail_fast ship container cable_car subway aircraft wheelchair scooter drone" speed="16.67" length="0.10" shape="1031.78,1840.57 1031.78,1840.57"/>