<?xml version="1.0" encoding="UTF-8"?>

<!-- generated on 2026-03-12 22:49:46.487720 by Eclipse SUMO randomTrips.py v1_26_0+0000-fa7df22d7f1
<configuration>
    <net-file value=".\data\networks\city_006.net.xml"/>
    <output-trip-file value=".\data\routes\scenarios_03\day.rou.xml"/>
    <prefix value="day_"/>
    <trip-attributes value="type='day_car'"/>
    <seed value="2026"/>
    <begin value="50400.0"/>
    <end value="57600.0"/>
    <period value="1.2"/>
</configuration>
-->

<routes xmlns:xsi="http://www.w3.org/2001/XMLSchema-instance" xsi:noNamespaceSchemaLocation="http://sumo.dlr.de/xsd/routes_file.xsd">
    <trip id="day_0" depart="50400.00" from="1395767649#0" to="54985260#12" type='day_car'/>
    <trip id="day_1" depart="50401.20" from="-25486114#0" to="-50831917" type='day_car'/>
    <trip id="day_2" depart="50402.40" from="25486115#1" to="192981424#6" type='day_car'/>
    <trip id="day_3" depart="50403.60" from="50831918#0" to="192981424#0" type='day_car'/>
    <trip id="day_4" depart="50404.80" from="50449361#1" to="50831918#0" type='day_car'/>
    <trip id="day_5" depart="50406.00" from="50831915#0" to="25486115#2" type='day_car'/>
    <trip id="day_6" depart="50407.20" from="-50831915#8" to="25684551#3" type='day_car'/>
    <trip id="day_7" depart="50408.40" from="-25504350#0" to="51095934#8" type='day_car'/>
    <trip id="day_8" depart="50409.60" from="-829563410#2" to="51095934#7" type='day_car'/>
    <trip id="day_9" depart="50410.80" from="-50449361#7" to="-51095934#2" type='day_car'/>
    <trip id="day_10" depart="50412.00" from="88247764#10" to="622102030#2" type='day_car'/>
    <trip id="day_11" depart="50413.20" from="1395767649#0" to="-25486114#0" type='day_car'/>
    <trip id="day_12" depart="50414.40" from="-54985260#10" to="192981424#6" type='day_car'/>
    <trip id="day_13" depart="50415.60" from="-51095934#4" to="1177906287#0" type='day_car'/>
    <trip id="day_14" depart="50416.80" from="54985260#3" to="49830666#4" type='day_car'/>
    <trip id="day_15" depart="50418.00" from="49830666#0" to="-580760138#6" type='day_car'/>
    <trip id="day_16" depart="50419.20" from="-622102031#2" to="-622102031#7" type='day_car'/>
    <trip id="day_17" depart="50420.40" from="192987238#1" to="1395767649#0" type='day_car'/>
    <trip id="day_18" depart="50421.60" from="-25504350#2" to="170083666#2" type='day_car'/>
    <trip id="day_19" depart="50422.80" from="50831915#0" to="25504350#5" type='day_car'/>
    <trip id="day_20" depart="50424.00" from="1124346622#1" to="580760138#6" type='day_car'/>
    <trip id="day_21" depart="50425.20" from="-50831919#1" to="-88247764#10" type='day_car'/>
    <trip id="day_22" depart="50426.40" from="620932850#1" to="1331576371#1" type='day_car'/>
    <trip id="day_23" depart="50427.60" from="-50831915#11" to="-25684557#0" type='day_car'/>
    <trip id="day_24" depart="50428.80" from="-1395767647#0" to="49830666#4" type='day_car'/>
    <trip id="day_25" depart="50430.00" from="25684487" to="130503625#0" type='day_car'/>
    <trip id="day_26" depart="50431.20" from="1075767203#1" to="-51095930#0" type='day_car'/>
    <trip id="day_27" depart="50432.40" from="54985260#7" to="25684557#0" type='day_car'/>
    <trip id="day_28" depart="50433.60" from="-88247764#1" to="130503625#0" type='day_car'/>
    <trip id="day_29" depart="50434.80" from="620932850#3" to="88247764#4" type='day_car'/>
    <trip id="day_30" depart="50436.00" from="170590846" to="192981424#7" type='day_car'/>
    <trip id="day_31" depart="50437.20" from="277523407#1" to="-54985260#12" type='day_car'/>
    <trip id="day_32" depart="50438.40" from="-88247764#9" to="54985260#7" type='day_car'/>
    <trip id="day_33" depart="50439.60" from="-622102031#6" to="-53369130#1" type='day_car'/>
    <trip id="day_34" depart="50440.80" from="-51095934#0" to="-1395767649#0" type='day_car'/>
    <trip id="day_35" depart="50442.00" from="25684557#4" to="25504350#4" type='day_car'/>
    <trip id="day_36" depart="50443.20" from="-88247764#1" to="170094575#1" type='day_car'/>
    <trip id="day_37" depart="50444.40" from="1124346622#0" to="620932850#1" type='day_car'/>
    <trip id="day_38" depart="50445.60" from="1395767648#1" to="51510531#1" type='day_car'/>
    <trip id="day_39" depart="50446.80" from="580760138#0" to="52152425#1" type='day_car'/>
    <trip id="day_40" depart="50448.00" from="-186475564#3" to="477271462#4" type='day_car'/>
    <trip id="day_41" depart="50449.20" from="64973297#1" to="53103893#1" type='day_car'/>
    <trip id="day_42" depart="50450.40" from="-88247764#9" to="-183263068#0" type='day_car'/>
    <trip id="day_43" depart="50451.60" from="-51095930#2" to="1395767649#0" type='day_car'/>
    <trip id="day_44" depart="50452.80" from="-186475564#2" to="50831915#4" type='day_car'/>
    <trip id="day_45" depart="50454.00" from="-622102030#1" to="1124346622#0" type='day_car'/>
    <trip id="day_46" depart="50455.20" from="-1124346622#2" to="-1075767203#0" type='day_car'/>
    <trip id="day_47" depart="50456.40" from="192981425#1" to="622102030#3" type='day_car'/>
    <trip id="day_48" depart="50457.60" from="-183263068#0" to="51095934#12" type='day_car'/>
    <trip id="day_49" depart="50458.80" from="-50831916#1" to="25684551#6" type='day_car'/>
    <trip id="day_50" depart="50460.00" from="50831915#1" to="635143862#0" type='day_car'/>
    <trip id="day_51" depart="50461.20" from="277523407#1" to="25684557#4" type='day_car'/>
    <trip id="day_52" depart="50462.40" from="192987238#0" to="50831918#0" type='day_car'/>
    <trip id="day_53" depart="50463.60" from="622102031#4" to="1395767647#1" type='day_car'/>
    <trip id="day_54" depart="50464.80" from="49830666#4" to="-25684557#3" type='day_car'/>
    <trip id="day_55" depart="50466.00" from="-50831915#10" to="25504350#0" type='day_car'/>
    <trip id="day_56" depart="50467.20" from="622102031#7" to="54985260#4" type='day_car'/>
    <trip id="day_57" depart="50468.40" from="277523407#1" to="622102031#0" type='day_car'/>
    <trip id="day_58" depart="50469.60" from="50831919#0" to="580760138#6" type='day_car'/>
    <trip id="day_59" depart="50470.80" from="-51510530" to="-829563410#1" type='day_car'/>
    <trip id="day_60" depart="50472.00" from="-25486115#1" to="54985260#9" type='day_car'/>
    <trip id="day_61" depart="50473.20" from="-1395767647#1" to="-54985279#5" type='day_car'/>
    <trip id="day_62" depart="50474.40" from="-54985260#16" to="50831918#0" type='day_car'/>
    <trip id="day_63" depart="50475.60" from="-53103899" to="-54985260#10" type='day_car'/>
    <trip id="day_64" depart="50476.80" from="170083666#1" to="-88247764#7" type='day_car'/>
    <trip id="day_65" depart="50478.00" from="-54985260#1" to="25504350#4" type='day_car'/>
    <trip id="day_66" depart="50479.20" from="326037133#1" to="-186475564#1" type='day_car'/>
    <trip id="day_67" depart="50480.40" from="-580760138#6" to="-50831915#1" type='day_car'/>
    <trip id="day_68" depart="50481.60" from="580760138#6" to="-170094572#4" type='day_car'/>
    <trip id="day_69" depart="50482.80" from="170590846" to="53103893#0" type='day_car'/>
    <trip id="day_70" depart="50484.00" from="-477271462#2" to="49830666#7" type='day_car'/>
    <trip id="day_71" depart="50485.20" from="54985260#3" to="-25684557#1" type='day_car'/>
    <trip id="day_72" depart="50486.40" from="170094572#3" to="51095934#0" type='day_car'/>
    <trip id="day_73" depart="50487.60" from="170083666#0" to="635143862#0" type='day_car'/>
    <trip id="day_74" depart="50488.80" from="-25684557#5" to="53103899" type='day_car'/>
    <trip id="day_75" depart="50490.00" from="-622102030#2" to="-25486115#0" type='day_car'/>
    <trip id="day_76" depart="50491.20" from="-51510530" to="-54985279#4" type='day_car'/>
    <trip id="day_77" depart="50492.40" from="-51095930#1" to="1395767648#1" type='day_car'/>
    <trip id="day_78" depart="50493.60" from="50831917" to="-88247764#0" type='day_car'/>
    <trip id="day_79" depart="50494.80" from="-88247764#4" to="-54985260#6" type='day_car'/>
    <trip id="day_80" depart="50496.00" from="51095934#1" to="51095934#13" type='day_car'/>
    <trip id="day_81" depart="50497.20" from="51095934#5" to="53369130#1" type='day_car'/>
    <trip id="day_82" depart="50498.40" from="-50831915#4" to="626880271#0" type='day_car'/>
    <trip id="day_83" depart="50499.60" from="54985260#4" to="277523407#1" type='day_car'/>
    <trip id="day_84" depart="50500.80" from="-620932850#3" to="51095930#2" type='day_car'/>
    <trip id="day_85" depart="50502.00" from="53369130#0" to="37177801#3" type='day_car'/>
    <trip id="day_86" depart="50503.20" from="635143862#0" to="-580760138#1" type='day_car'/>
    <trip id="day_87" depart="50504.40" from="-25684557#4" to="192981425#0" type='day_car'/>
    <trip id="day_88" depart="50505.60" from="-25486115#2" to="50449361#2" type='day_car'/>
    <trip id="day_89" depart="50506.80" from="-50831914#1" to="-53369130#1" type='day_car'/>
    <trip id="day_90" depart="50508.00" from="-51095934#0" to="192981424#6" type='day_car'/>
    <trip id="day_91" depart="50509.20" from="622102031#6" to="-50449361#0" type='day_car'/>
    <trip id="day_92" depart="50510.40" from="49830666#5" to="-50449361#6" type='day_car'/>
    <trip id="day_93" depart="50511.60" from="25684551#10" to="170083666#2" type='day_car'/>
    <trip id="day_94" depart="50512.80" from="-51095934#12" to="53103882#1" type='day_car'/>
    <trip id="day_95" depart="50514.00" from="-51095930#0" to="-183263068#0" type='day_car'/>
    <trip id="day_96" depart="50515.20" from="-622102030#1" to="54985279#3" type='day_car'/>
    <trip id="day_97" depart="50516.40" from="50831916#1" to="-829563410#2" type='day_car'/>
    <trip id="day_98" depart="50517.60" from="-1124346622#2" to="-25504350#3" type='day_car'/>
    <trip id="day_99" depart="50518.80" from="622102030#2" to="-580760138#1" type='day_car'/>
    <trip id="day_100" depart="50520.00" from="50831917" to="25684551#1" type='day_car'/>
    <trip id="day_101" depart="50521.20" from="25684557#4" to="25684551#3" type='day_car'/>
    <trip id="day_102" depart="50522.40" from="620932850#1" to="-54985260#2" type='day_car'/>
    <trip id="day_103" depart="50523.60" from="88247764#1" to="54985260#5" type='day_car'/>
    <trip id="day_104" depart="50524.80" from="326037134#0" to="620932850#2" type='day_car'/>
    <trip id="day_105" depart="50526.00" from="-54985260#2" to="50831915#1" type='day_car'/>
    <trip id="day_106" depart="50527.20" from="622102031#7" to="51095934#15" type='day_car'/>
    <trip id="day_107" depart="50528.40" from="-25504350#5" to="50831918#0" type='day_car'/>
    <trip id="day_108" depart="50529.60" from="-53103882#0" to="54985279#5" type='day_car'/>
    <trip id="day_109" depart="50530.80" from="170590845" to="-54985279#3" type='day_car'/>
    <trip id="day_110" depart="50532.00" from="-25504350#0" to="25684551#5" type='day_car'/>
    <trip id="day_111" depart="50533.20" from="-25504350#3" to="-25684551#9" type='day_car'/>
    <trip id="day_112" depart="50534.40" from="-54985260#16" to="277523407#2" type='day_car'/>
    <trip id="day_113" depart="50535.60" from="25684557#4" to="-1395767648#0" type='day_car'/>
    <trip id="day_114" depart="50536.80" from="192981425#0" to="-580760138#3" type='day_car'/>
    <trip id="day_115" depart="50538.00" from="-54985279#4" to="-51095934#1" type='day_car'/>
    <trip id="day_116" depart="50539.20" from="-622102031#1" to="-50831916#1" type='day_car'/>
    <trip id="day_117" depart="50540.40" from="-25504350#6" to="186475564#3" type='day_car'/>
    <trip id="day_118" depart="50541.60" from="262767663#1" to="622102031#0" type='day_car'/>
    <trip id="day_119" depart="50542.80" from="326037134#1" to="-622102031#6" type='day_car'/>
    <trip id="day_120" depart="50544.00" from="-50831918#1" to="-326037134#0" type='day_car'/>
    <trip id="day_121" depart="50545.20" from="-1204274369" to="-52152425#0" type='day_car'/>
    <trip id="day_122" depart="50546.40" from="192987238#4" to="53103893#0" type='day_car'/>
    <trip id="day_123" depart="50547.60" from="183263069#1" to="309448838" type='day_car'/>
    <trip id="day_124" depart="50548.80" from="-51095930#2" to="25684557#3" type='day_car'/>
    <trip id="day_125" depart="50550.00" from="50831915#10" to="-54985260#2" type='day_car'/>
    <trip id="day_126" depart="50551.20" from="25684557#5" to="-1124346622#0" type='day_car'/>
    <trip id="day_127" depart="50552.40" from="88247764#1" to="130503625#1" type='day_car'/>
    <trip id="day_128" depart="50553.60" from="829563410#1" to="475735005" type='day_car'/>
    <trip id="day_129" depart="50554.80" from="54985260#11" to="622102030#1" type='day_car'/>
    <trip id="day_130" depart="50556.00" from="580760138#0" to="-622102031#7" type='day_car'/>
    <trip id="day_131" depart="50557.20" from="88247764#0" to="622102031#7" type='day_car'/>
    <trip id="day_132" depart="50558.40" from="-54985260#12" to="-50831915#3" type='day_car'/>
    <trip id="day_133" depart="50559.60" from="-54985260#3" to="25684557#5" type='day_car'/>
    <trip id="day_134" depart="50560.80" from="183263068#0" to="130503625#2" type='day_car'/>
    <trip id="day_135" depart="50562.00" from="51095930#1" to="25486114#0" type='day_car'/>
    <trip id="day_136" depart="50563.20" from="-477271462#2" to="25684557#1" type='day_car'/>
    <trip id="day_137" depart="50564.40" from="-25684557#2" to="54985279#1" type='day_car'/>
    <trip id="day_138" depart="50565.60" from="622102031#4" to="51095934#7" type='day_car'/>
    <trip id="day_139" depart="50566.80" from="-183263068#0" to="-620932850#3" type='day_car'/>
    <trip id="day_140" depart="50568.00" from="50449361#1" to="-25684557#4" type='day_car'/>
    <trip id="day_141" depart="50569.20" from="50449361#4" to="88247764#9" type='day_car'/>
    <trip id="day_142" depart="50570.40" from="-1177906287#0" to="-50831916#0" type='day_car'/>
    <trip id="day_143" depart="50571.60" from="53369130#0" to="25486114#1" type='day_car'/>
    <trip id="day_144" depart="50572.80" from="-54985279#3" to="64973297#1" type='day_car'/>
    <trip id="day_145" depart="50574.00" from="170083666#0" to="277523407#0" type='day_car'/>
    <trip id="day_146" depart="50575.20" from="-183263068#1" to="50831914#1" type='day_car'/>
    <trip id="day_147" depart="50576.40" from="-53369130#2" to="-51095934#6" type='day_car'/>
    <trip id="day_148" depart="50577.60" from="-1395767642" to="25504350#2" type='day_car'/>
    <trip id="day_149" depart="50578.80" from="51095930#0" to="-477271462#2" type='day_car'/>
    <trip id="day_150" depart="50580.00" from="-51095934#5" to="186475564#2" type='day_car'/>
    <trip id="day_151" depart="50581.20" from="-54985260#3" to="87080018" type='day_car'/>
    <trip id="day_152" depart="50582.40" from="-477271462#2" to="50831915#4" type='day_car'/>
    <trip id="day_153" depart="50583.60" from="-1124346622#0" to="25504350#7" type='day_car'/>
    <trip id="day_154" depart="50584.80" from="1075767203#0" to="-88247764#2" type='day_car'/>
    <trip id="day_155" depart="50586.00" from="51095934#3" to="54985279#5" type='day_car'/>
    <trip id="day_156" depart="50587.20" from="88247764#1" to="88247764#8" type='day_car'/>
    <trip id="day_157" depart="50588.40" from="-326037134#1" to="170094573" type='day_car'/>
    <trip id="day_158" depart="50589.60" from="-475735004" to="186475564#1" type='day_car'/>
    <trip id="day_159" depart="50590.80" from="-326037133#0" to="54985260#9" type='day_car'/>
    <trip id="day_160" depart="50592.00" from="1463043806" to="54985260#6" type='day_car'/>
    <trip id="day_161" depart="50593.20" from="25684551#9" to="-1075767203#0" type='day_car'/>
    <trip id="day_162" depart="50594.40" from="-54985279#0" to="-620932850#1" type='day_car'/>
    <trip id="day_163" depart="50595.60" from="25504350#1" to="-25684551#9" type='day_car'/>
    <trip id="day_164" depart="50596.80" from="54985260#2" to="50449361#7" type='day_car'/>
    <trip id="day_165" depart="50598.00" from="-54985279#3" to="25684551#4" type='day_car'/>
    <trip id="day_166" depart="50599.20" from="25684557#1" to="-54985279#5" type='day_car'/>
    <trip id="day_167" depart="50600.40" from="326037134#1" to="1124346622#2" type='day_car'/>
    <trip id="day_168" depart="50601.60" from="192987238#1" to="-25486115#1" type='day_car'/>
    <trip id="day_169" depart="50602.80" from="50831917" to="-25504350#0" type='day_car'/>
    <trip id="day_170" depart="50604.00" from="50831915#1" to="-50831919#0" type='day_car'/>
    <trip id="day_171" depart="50605.20" from="-53103893#1" to="170083666#2" type='day_car'/>
    <trip id="day_172" depart="50606.40" from="49830666#6" to="54985260#11" type='day_car'/>
    <trip id="day_173" depart="50607.60" from="-620932850#0" to="-50449361#2" type='day_car'/>
    <trip id="day_174" depart="50608.80" from="51095930#0" to="-829563410#0" type='day_car'/>
    <trip id="day_175" depart="50610.00" from="-25684557#3" to="50831915#2" type='day_car'/>
    <trip id="day_176" depart="50611.20" from="25684557#5" to="-25684557#0" type='day_car'/>
    <trip id="day_177" depart="50612.40" from="-51095934#0" to="53103882#0" type='day_car'/>
    <trip id="day_178" depart="50613.60" from="-53103882#0" to="53103893#1" type='day_car'/>
    <trip id="day_179" depart="50614.80" from="-64973297#1" to="-326037133#1" type='day_car'/>
    <trip id="day_180" depart="50616.00" from="25684551#1" to="-51095930#2" type='day_car'/>
    <trip id="day_181" depart="50617.20" from="829563410#1" to="192981425#0" type='day_car'/>
    <trip id="day_182" depart="50618.40" from="-25504350#5" to="-53369130#1" type='day_car'/>
    <trip id="day_183" depart="50619.60" from="-88247764#1" to="-635143862#0" type='day_car'/>
    <trip id="day_184" depart="50620.80" from="326037133#1" to="620932850#2" type='day_car'/>
    <trip id="day_185" depart="50622.00" from="580760138#1" to="53369130#1" type='day_car'/>
    <trip id="day_186" depart="50623.20" from="622102031#5" to="37177801#2" type='day_car'/>
    <trip id="day_187" depart="50624.40" from="174648253" to="-50831915#7" type='day_car'/>
    <trip id="day_188" depart="50625.60" from="-54985260#15" to="-54985260#8" type='day_car'/>
    <trip id="day_189" depart="50626.80" from="620932850#0" to="50449361#6" type='day_car'/>
    <trip id="day_190" depart="50628.00" from="-1124346622#0" to="192981424#7" type='day_car'/>
    <trip id="day_191" depart="50629.20" from="-50831918#0" to="-54985260#9" type='day_car'/>
    <trip id="day_192" depart="50630.40" from="25684551#9" to="-829563410#2" type='day_car'/>
    <trip id="day_193" depart="50631.60" from="50831916#1" to="1331576371#0" type='day_car'/>
    <trip id="day_194" depart="50632.80" from="54985260#8" to="-54985279#2" type='day_car'/>
    <trip id="day_195" depart="50634.00" from="-1331576371#1" to="-50831916#1" type='day_car'/>
    <trip id="day_196" depart="50635.20" from="-25504350#4" to="54985260#0" type='day_car'/>
    <trip id="day_197" depart="50636.40" from="-51095934#0" to="-130503625#0" type='day_car'/>
    <trip id="day_198" depart="50637.60" from="-50449361#6" to="1177906287#0" type='day_car'/>
    <trip id="day_199" depart="50638.80" from="-51095934#12" to="25684557#2" type='day_car'/>
    <trip id="day_200" depart="50640.00" from="-170094575#2" to="477271462#5" type='day_car'/>
    <trip id="day_201" depart="50641.20" from="170094575#2" to="-1124346622#0" type='day_car'/>
    <trip id="day_202" depart="50642.40" from="-186475564#2" to="-54985260#8" type='day_car'/>
    <trip id="day_203" depart="50643.60" from="-50831915#1" to="1204274369" type='day_car'/>
    <trip id="day_204" depart="50644.80" from="25504350#0" to="-50449361#0" type='day_car'/>
    <trip id="day_205" depart="50646.00" from="49830666#0" to="477271462#0" type='day_car'/>
    <trip id="day_206" depart="50647.20" from="186475564#2" to="-25684551#0" type='day_car'/>
    <trip id="day_207" depart="50648.40" from="-51095934#1" to="-88247764#10" type='day_car'/>
    <trip id="day_208" depart="50649.60" from="-477271462#1" to="50831915#0" type='day_car'/>
    <trip id="day_209" depart="50650.80" from="88247764#5" to="88247764#4" type='day_car'/>
    <trip id="day_210" depart="50652.00" from="580760138#2" to="326037134#0" type='day_car'/>
    <trip id="day_211" depart="50653.20" from="-54985260#11" to="-54985279#5" type='day_car'/>
    <trip id="day_212" depart="50654.40" from="25504350#0" to="-51095934#3" type='day_car'/>
    <trip id="day_213" depart="50655.60" from="54985260#6" to="53103893#0" type='day_car'/>
    <trip id="day_214" depart="50656.80" from="-1331576371#0" to="1395767647#0" type='day_car'/>
    <trip id="day_215" depart="50658.00" from="-50831918#1" to="50831915#7" type='day_car'/>
    <trip id="day_216" depart="50659.20" from="-50449361#2" to="-51543398#0" type='day_car'/>
    <trip id="day_217" depart="50660.40" from="53103882#0" to="-622102031#7" type='day_car'/>
    <trip id="day_218" depart="50661.60" from="-50831915#0" to="-170094575#3" type='day_car'/>
    <trip id="day_219" depart="50662.80" from="-622102030#1" to="-183263069#1" type='day_car'/>
    <trip id="day_220" depart="50664.00" from="49830666#5" to="326037134#1" type='day_car'/>
    <trip id="day_221" depart="50665.20" from="326037134#1" to="50831917" type='day_car'/>
    <trip id="day_222" depart="50666.40" from="-51095934#7" to="1395767642" type='day_car'/>
    <trip id="day_223" depart="50667.60" from="170083666#2" to="-54985260#6" type='day_car'/>
    <trip id="day_224" depart="50668.80" from="-475735005" to="88247764#5" type='day_car'/>
    <trip id="day_225" depart="50670.00" from="54985260#11" to="-50449361#1" type='day_car'/>
    <trip id="day_226" depart="50671.20" from="-50831919#0" to="622102031#6" type='day_car'/>
    <trip id="day_227" depart="50672.40" from="-54985279#4" to="-25684551#0" type='day_car'/>
    <trip id="day_228" depart="50673.60" from="25504350#1" to="-50831915#9" type='day_car'/>
    <trip id="day_229" depart="50674.80" from="-88247764#3" to="-50831915#6" type='day_car'/>
    <trip id="day_230" depart="50676.00" from="1395767648#0" to="170094575#3" type='day_car'/>
    <trip id="day_231" depart="50677.20" from="1395767649#0" to="51095934#11" type='day_car'/>
    <trip id="day_232" depart="50678.40" from="-51095934#1" to="54985260#3" type='day_car'/>
    <trip id="day_233" depart="50679.60" from="1124346622#0" to="192981424#7" type='day_car'/>
    <trip id="day_234" depart="50680.80" from="88247764#8" to="-622102031#4" type='day_car'/>
    <trip id="day_235" depart="50682.00" from="-25684557#1" to="192981424#2" type='day_car'/>
    <trip id="day_236" depart="50683.20" from="88247764#10" to="50831914#0" type='day_car'/>
    <trip id="day_237" depart="50684.40" from="-25684551#1" to="51095934#8" type='day_car'/>
    <trip id="day_238" depart="50685.60" from="25684557#5" to="-174648253" type='day_car'/>
    <trip id="day_239" depart="50686.80" from="277523407#0" to="-1395767649#0" type='day_car'/>
    <trip id="day_240" depart="50688.00" from="51095930#1" to="622102031#3" type='day_car'/>
    <trip id="day_241" depart="50689.20" from="170094575#3" to="-580760138#3" type='day_car'/>
    <trip id="day_242" depart="50690.40" from="-88247764#1" to="-50449361#6" type='day_car'/>
    <trip id="day_243" depart="50691.60" from="-1395767648#0" to="-50449361#6" type='day_car'/>
    <trip id="day_244" depart="50692.80" from="1124346622#0" to="186475564#4" type='day_car'/>
    <trip id="day_245" depart="50694.00" from="-130503625#0" to="-50831916#1" type='day_car'/>
    <trip id="day_246" depart="50695.20" from="-54985260#6" to="186475564#3" type='day_car'/>
    <trip id="day_247" depart="50696.40" from="-88247764#4" to="50831915#4" type='day_car'/>
    <trip id="day_248" depart="50697.60" from="-25684557#3" to="-54985260#5" type='day_car'/>
    <trip id="day_249" depart="50698.80" from="49830666#2" to="-170094572#2" type='day_car'/>
    <trip id="day_250" depart="50700.00" from="-1124346621" to="-25504350#3" type='day_car'/>
    <trip id="day_251" depart="50701.20" from="192987238#1" to="49830666#4" type='day_car'/>
    <trip id="day_252" depart="50702.40" from="51095934#4" to="-51095934#4" type='day_car'/>
    <trip id="day_253" depart="50703.60" from="50831915#2" to="-477271462#3" type='day_car'/>
    <trip id="day_254" depart="50704.80" from="-477271462#4" to="51095934#8" type='day_car'/>
    <trip id="day_255" depart="50706.00" from="-622102031#2" to="-88247764#6" type='day_car'/>
    <trip id="day_256" depart="50707.20" from="51543398#1" to="-50449361#0" type='day_car'/>
    <trip id="day_257" depart="50708.40" from="-50831915#11" to="829563410#1" type='day_car'/>
    <trip id="day_258" depart="50709.60" from="-50831914#0" to="-477271462#0" type='day_car'/>
    <trip id="day_259" depart="50710.80" from="88247764#6" to="-88247764#2" type='day_car'/>
    <trip id="day_260" depart="50712.00" from="-622102031#2" to="54985260#10" type='day_car'/>
    <trip id="day_261" depart="50713.20" from="477271462#3" to="829563410#1" type='day_car'/>
    <trip id="day_262" depart="50714.40" from="622102031#3" to="25684551#1" type='day_car'/>
    <trip id="day_263" depart="50715.60" from="-186475564#0" to="54985279#3" type='day_car'/>
    <trip id="day_264" depart="50716.80" from="50449361#4" to="-25684551#3" type='day_car'/>
    <trip id="day_265" depart="50718.00" from="-170094575#2" to="50449361#2" type='day_car'/>
    <trip id="day_266" depart="50719.20" from="25684487" to="-477271462#0" type='day_car'/>
    <trip id="day_267" depart="50720.40" from="-477271462#3" to="622102031#6" type='day_car'/>
    <trip id="day_268" depart="50721.60" from="88247764#2" to="-1395767648#1" type='day_car'/>
    <trip id="day_269" depart="50722.80" from="829563410#1" to="277523407#2" type='day_car'/>
    <trip id="day_270" depart="50724.00" from="580760138#3" to="51095934#10" type='day_car'/>
    <trip id="day_271" depart="50725.20" from="-51095934#2" to="-620932850#0" type='day_car'/>
    <trip id="day_272" depart="50726.40" from="-1124346622#0" to="170094575#1" type='day_car'/>
    <trip id="day_273" depart="50727.60" from="54985260#7" to="53103893#0" type='day_car'/>
    <trip id="day_274" depart="50728.80" from="1124346621" to="-25684557#4" type='day_car'/>
    <trip id="day_275" depart="50730.00" from="51095934#0" to="192981424#7" type='day_car'/>
    <trip id="day_276" depart="50731.20" from="829563410#0" to="1124346622#2" type='day_car'/>
    <trip id="day_277" depart="50732.40" from="25504350#1" to="25504350#2" type='day_car'/>
    <trip id="day_278" depart="50733.60" from="620932850#3" to="37177801#3" type='day_car'/>
    <trip id="day_279" depart="50734.80" from="-53103893#1" to="-51095934#3" type='day_car'/>
    <trip id="day_280" depart="50736.00" from="-54985260#13" to="51510531#1" type='day_car'/>
    <trip id="day_281" depart="50737.20" from="170094572#2" to="183263068#1" type='day_car'/>
    <trip id="day_282" depart="50738.40" from="-186475564#3" to="-51543398#1" type='day_car'/>
    <trip id="day_283" depart="50739.60" from="-1331576371#1" to="25504350#1" type='day_car'/>
    <trip id="day_284" depart="50740.80" from="-88247764#1" to="1331576371#1" type='day_car'/>
    <trip id="day_285" depart="50742.00" from="-25684551#2" to="-25684487" type='day_car'/>
    <trip id="day_286" depart="50743.20" from="-186475564#0" to="186475564#0" type='day_car'/>
    <trip id="day_287" depart="50744.40" from="-50831918#1" to="829563410#2" type='day_car'/>
    <trip id="day_288" depart="50745.60" from="50831915#0" to="-186475564#1" type='day_car'/>
    <trip id="day_289" depart="50746.80" from="49830666#3" to="-54985260#12" type='day_car'/>
    <trip id="day_290" depart="50748.00" from="-88247764#6" to="-54985260#4" type='day_car'/>
    <trip id="day_291" depart="50749.20" from="54985279#2" to="477271462#4" type='day_car'/>
    <trip id="day_292" depart="50750.40" from="53369130#0" to="-88247764#1" type='day_car'/>
    <trip id="day_293" depart="50751.60" from="1124346622#0" to="25504350#3" type='day_car'/>
    <trip id="day_294" depart="50752.80" from="-635143862#1" to="50831918#0" type='day_car'/>
    <trip id="day_295" depart="50754.00" from="192987238#2" to="25504350#1" type='day_car'/>
    <trip id="day_296" depart="50755.20" from="1075767203#1" to="-130503625#0" type='day_car'/>
    <trip id="day_297" depart="50756.40" from="622102031#2" to="-622102031#0" type='day_car'/>
    <trip id="day_298" depart="50757.60" from="-130503625#2" to="1204274369" type='day_car'/>
    <trip id="day_299" depart="50758.80" from="-622102031#6" to="50831915#1" type='day_car'/>
    <trip id="day_300" depart="50760.00" from="-1204274370" to="25504350#6" type='day_car'/>
    <trip id="day_301" depart="50761.20" from="170083666#1" to="626880271#0" type='day_car'/>
    <trip id="day_302" depart="50762.40" from="-25504350#5" to="-620932850#1" type='day_car'/>
    <trip id="day_303" depart="50763.60" from="-326037134#0" to="-64973297#0" type='day_car'/>
    <trip id="day_304" depart="50764.80" from="-25504350#0" to="-25684487" type='day_car'/>
    <trip id="day_305" depart="50766.00" from="88247764#5" to="-622102031#7" type='day_car'/>
    <trip id="day_306" depart="50767.20" from="-1101990231" to="-50831915#10" type='day_car'/>
    <trip id="day_307" depart="50768.40" from="-51095930#1" to="51095934#15" type='day_car'/>
    <trip id="day_308" depart="50769.60" from="-183263068#0" to="-477271462#4" type='day_car'/>
    <trip id="day_309" depart="50770.80" from="580760138#2" to="-50831916#0" type='day_car'/>
    <trip id="day_310" depart="50772.00" from="53103882#0" to="51095934#2" type='day_car'/>
    <trip id="day_311" depart="50773.20" from="183263068#0" to="-1463043806" type='day_car'/>
    <trip id="day_312" depart="50774.40" from="626880271#0" to="88247764#1" type='day_car'/>
    <trip id="day_313" depart="50775.60" from="1463043806" to="622102031#0" type='day_car'/>