<?xml version="1.0" encoding="UTF-8"?>

<!-- generated on 2026-03-12 22:49:35.532306 by Eclipse SUMO randomTrips.py v1_26_0+0000-fa7df22d7f1
<configuration>
    <net-file value=".\data\networks\city_006.net.xml"/>
    <output-trip-file value=".\data\routes\scenarios_03\early.rou.xml"/>
    <prefix value="early_"/>
    <trip-attributes value="type='early_morning_car'"/>
    <seed value="2026"/>
    <begin value="18000.0"/>
    <end value="25200.0"/>
    <period value="1.5"/>
</configuration>
-->

<routes xmlns:xsi="http://www.w3.org/2001/XMLSchema-instance" xsi:noNamespaceSchemaLocation="http://sumo.dlr.de/xsd/routes_file.xsd">
    <trip id="early_0" depart="18000.00" from="1395767649#0" to="54985260#12" type='early_morning_car'/>
    <trip id="early_1" depart="18001.50" from="-25486114#0" to="-50831917" type='early_morning_car'/>
    <trip id="early_2" depart="18003.00" from="25486115#1" to="192981424#6" type='early_morning_car'/>
    <trip id="early_3" depart="18004.50" from="50831918#0" to="192981424#0" type='early_morning_car'/>
    <trip id="early_4" depart="18006.00" from="50449361#1" to="50831918#0" type='early_morning_car'/>
    <trip id="early_5" depart="18007.50" from="50831915#0" to="25486115#2" type='early_morning_car'/>
    <trip id="early_6" depart="18009.00" from="-50831915#8" to="25684551#3" type='early_morning_car'/>
    <trip id="early_7" depart="18010.50" from="-25504350#0" to="51095934#8" type='early_morning_car'/>
    <trip id="early_8" depart="18012.00" from="-829563410#2" to="51095934#7" type='early_morning_car'/>
    <trip id="early_9" depart="18013.50" from="-50449361#7" to="-51095934#2" type='early_morning_car'/>
    <trip id="early_10" depart="18015.00" from="88247764#10" to="622102030#2" type='early_morning_car'/>
    <trip id="early_11" depart="18016.50" from="1395767649#0" to="-25486114#0" type='early_morning_car'/>
    <trip id="early_12" depart="18018.00" from="-54985260#10" to="192981424#6" type='early_morning_car'/>
    <trip id="early_13" depart="18019.50" from="-51095934#4" to="1177906287#0" type='early_morning_car'/>
    <trip id="early_14" depart="18021.00" from="54985260#3" to="49830666#4" type='early_morning_car'/>
    <trip id="early_15" depart="18022.50" from="49830666#0" to="-580760138#6" type='early_morning_car'/>
    <trip id="early_16" depart="18024.00" from="-622102031#2" to="-622102031#7" type='early_morning_car'/>
    <trip id="early_17" depart="18025.50" from="192987238#1" to="1395767649#0" type='early_morning_car'/>
    <trip id="early_18" depart="18027.00" from="-25504350#2" to="170083666#2" type='early_morning_car'/>
    <trip id="early_19" depart="18028.50" from="50831915#0" to="25504350#5" type='early_morning_car'/>
    <trip id="early_20" depart="18030.00" from="1124346622#1" to="580760138#6" type='early_morning_car'/>
    <trip id="early_21" depart="18031.50" from="-50831919#1" to="-88247764#10" type='early_morning_car'/>
    <trip id="early_22" depart="18033.00" from="620932850#1" to="1331576371#1" type='early_morning_car'/>
    <trip id="early_23" depart="18034.50" from="-50831915#11" to="-25684557#0" type='early_morning_car'/>
    <trip id="early_24" depart="18036.00" from="-1395767647#0" to="49830666#4" type='early_morning_car'/>
    <trip id="early_25" depart="18037.50" from="25684487" to="130503625#0" type='early_morning_car'/>
    <trip id="early_26" depart="18039.00" from="1075767203#1" to="-51095930#0" type='early_morning_car'/>
    <trip id="early_27" depart="18040.50" from="54985260#7" to="25684557#0" type='early_morning_car'/>
    <trip id="early_28" depart="18042.00" from="-88247764#1" to="130503625#0" type='early_morning_car'/>
    <trip id="early_29" depart="18043.50" from="620932850#3" to="88247764#4" type='early_morning_car'/>
    <trip id="early_30" depart="18045.00" from="170590846" to="192981424#7" type='early_morning_car'/>
    <trip id="early_31" depart="18046.50" from="277523407#1" to="-54985260#12" type='early_morning_car'/>
    <trip id="early_32" depart="18048.00" from="-88247764#9" to="54985260#7" type='early_morning_car'/>
    <trip id="early_33" depart="18049.50" from="-622102031#6" to="-53369130#1" type='early_morning_car'/>
    <trip id="early_34" depart="18051.00" from="-51095934#0" to="-1395767649#0" type='early_morning_car'/>
    <trip id="early_35" depart="18052.50" from="25684557#4" to="25504350#4" type='early_morning_car'/>
    <trip id="early_36" depart="18054.00" from="-88247764#1" to="170094575#1" type='early_morning_car'/>
    <trip id="early_37" depart="18055.50" from="1124346622#0" to="620932850#1" type='early_morning_car'/>
    <trip id="early_38" depart="18057.00" from="1395767648#1" to="51510531#1" type='early_morning_car'/>
    <trip id="early_39" depart="18058.50" from="580760138#0" to="52152425#1" type='early_morning_car'/>
    <trip id="early_40" depart="18060.00" from="-186475564#3" to="477271462#4" type='early_morning_car'/>
    <trip id="early_41" depart="18061.50" from="64973297#1" to="53103893#1" type='early_morning_car'/>
    <trip id="early_42" depart="18063.00" from="-88247764#9" to="-183263068#0" type='early_morning_car'/>
    <trip id="early_43" depart="18064.50" from="-51095930#2" to="1395767649#0" type='early_morning_car'/>
    <trip id="early_44" depart="18066.00" from="-186475564#2" to="50831915#4" type='early_morning_car'/>
    <trip id="early_45" depart="18067.50" from="-622102030#1" to="1124346622#0" type='early_morning_car'/>
    <trip id="early_46" depart="18069.00" from="-1124346622#2" to="-1075767203#0" type='early_morning_car'/>
    <trip id="early_47" depart="18070.50" from="192981425#1" to="622102030#3" type='early_morning_car'/>
    <trip id="early_48" depart="18072.00" from="-183263068#0" to="51095934#12" type='early_morning_car'/>
    <trip id="early_49" depart="18073.50" from="-50831916#1" to="25684551#6" type='early_morning_car'/>
    <trip id="early_50" depart="18075.00" from="50831915#1" to="635143862#0" type='early_morning_car'/>
    <trip id="early_51" depart="18076.50" from="277523407#1" to="25684557#4" type='early_morning_car'/>
    <trip id="early_52" depart="18078.00" from="192987238#0" to="50831918#0" type='early_morning_car'/>
    <trip id="early_53" depart="18079.50" from="622102031#4" to="1395767647#1" type='early_morning_car'/>
    <trip id="early_54" depart="18081.00" from="49830666#4" to="-25684557#3" type='early_morning_car'/>
    <trip id="early_55" depart="18082.50" from="-50831915#10" to="25504350#0" type='early_morning_car'/>
    <trip id="early_56" depart="18084.00" from="622102031#7" to="54985260#4" type='early_morning_car'/>
    <trip id="early_57" depart="18085.50" from="277523407#1" to="622102031#0" type='early_morning_car'/>
    <trip id="early_58" depart="18087.00" from="50831919#0" to="580760138#6" type='early_morning_car'/>
    <trip id="early_59" depart="18088.50" from="-51510530" to="-829563410#1" type='early_morning_car'/>
    <trip id="early_60" depart="18090.00" from="-25486115#1" to="54985260#9" type='early_morning_car'/>
    <trip id="early_61" depart="18091.50" from="-1395767647#1" to="-54985279#5" type='early_morning_car'/>
    <trip id="early_62" depart="18093.00" from="-54985260#16" to="50831918#0" type='early_morning_car'/>
    <trip id="early_63" depart="18094.50" from="-53103899" to="-54985260#10" type='early_morning_car'/>
    <trip id="early_64" depart="18096.00" from="170083666#1" to="-88247764#7" type='early_morning_car'/>
    <trip id="early_65" depart="18097.50" from="-54985260#1" to="25504350#4" type='early_morning_car'/>
    <trip id="early_66" depart="18099.00" from="326037133#1" to="-186475564#1" type='early_morning_car'/>
    <trip id="early_67" depart="18100.50" from="-580760138#6" to="-50831915#1" type='early_morning_car'/>
    <trip id="early_68" depart="18102.00" from="580760138#6" to="-170094572#4" type='early_morning_car'/>
    <trip id="early_69" depart="18103.50" from="170590846" to="53103893#0" type='early_morning_car'/>
    <trip id="early_70" depart="18105.00" from="-477271462#2" to="49830666#7" type='early_morning_car'/>
    <trip id="early_71" depart="18106.50" from="54985260#3" to="-25684557#1" type='early_morning_car'/>
    <trip id="early_72" depart="18108.00" from="170094572#3" to="51095934#0" type='early_morning_car'/>
    <trip id="early_73" depart="18109.50" from="170083666#0" to="635143862#0" type='early_morning_car'/>
    <trip id="early_74" depart="18111.00" from="-25684557#5" to="53103899" type='early_morning_car'/>
    <trip id="early_75" depart="18112.50" from="-622102030#2" to="-25486115#0" type='early_morning_car'/>
    <trip id="early_76" depart="18114.00" from="-51510530" to="-54985279#4" type='early_morning_car'/>
    <trip id="early_77" depart="18115.50" from="-51095930#1" to="1395767648#1" type='early_morning_car'/>
    <trip id="early_78" depart="18117.00" from="50831917" to="-88247764#0" type='early_morning_car'/>
    <trip id="early_79" depart="18118.50" from="-88247764#4" to="-54985260#6" type='early_morning_car'/>
    <trip id="early_80" depart="18120.00" from="51095934#1" to="51095934#13" type='early_morning_car'/>
    <trip id="early_81" depart="18121.50" from="51095934#5" to="53369130#1" type='early_morning_car'/>
    <trip id="early_82" depart="18123.00" from="-50831915#4" to="626880271#0" type='early_morning_car'/>
    <trip id="early_83" depart="18124.50" from="54985260#4" to="277523407#1" type='early_morning_car'/>
    <trip id="early_84" depart="18126.00" from="-620932850#3" to="51095930#2" type='early_morning_car'/>
    <trip id="early_85" depart="18127.50" from="53369130#0" to="37177801#3" type='early_morning_car'/>
    <trip id="early_86" depart="18129.00" from="635143862#0" to="-580760138#1" type='early_morning_car'/>
    <trip id="early_87" depart="18130.50" from="-25684557#4" to="192981425#0" type='early_morning_car'/>
    <trip id="early_88" depart="18132.00" from="-25486115#2" to="50449361#2" type='early_morning_car'/>
    <trip id="early_89" depart="18133.50" from="-50831914#1" to="-53369130#1" type='early_morning_car'/>
    <trip id="early_90" depart="18135.00" from="-51095934#0" to="192981424#6" type='early_morning_car'/>
    <trip id="early_91" depart="18136.50" from="622102031#6" to="-50449361#0" type='early_morning_car'/>
    <trip id="early_92" depart="18138.00" from="49830666#5" to="-50449361#6" type='early_morning_car'/>
    <trip id="early_93" depart="18139.50" from="25684551#10" to="170083666#2" type='early_morning_car'/>
    <trip id="early_94" depart="18141.00" from="-51095934#12" to="53103882#1" type='early_morning_car'/>
    <trip id="early_95" depart="18142.50" from="-51095930#0" to="-183263068#0" type='early_morning_car'/>
    <trip id="early_96" depart="18144.00" from="-622102030#1" to="54985279#3" type='early_morning_car'/>
    <trip id="early_97" depart="18145.50" from="50831916#1" to="-829563410#2" type='early_morning_car'/>
    <trip id="early_98" depart="18147.00" from="-1124346622#2" to="-25504350#3" type='early_morning_car'/>
    <trip id="early_99" depart="18148.50" from="622102030#2" to="-580760138#1" type='early_morning_car'/>
    <trip id="early_100" depart="18150.00" from="50831917" to="25684551#1" type='early_morning_car'/>
    <trip id="early_101" depart="18151.50" from="25684557#4" to="25684551#3" type='early_morning_car'/>
    <trip id="early_102" depart="18153.00" from="620932850#1" to="-54985260#2" type='early_morning_car'/>
    <trip id="early_103" depart="18154.50" from="88247764#1" to="54985260#5" type='early_morning_car'/>
    <trip id="early_104" depart="18156.00" from="326037134#0" to="620932850#2" type='early_morning_car'/>
    <trip id="early_105" depart="18157.50" from="-54985260#2" to="50831915#1" type='early_morning_car'/>
    <trip id="early_106" depart="18159.00" from="622102031#7" to="51095934#15" type='early_morning_car'/>
    <trip id="early_107" depart="18160.50" from="-25504350#5" to="50831918#0" type='early_morning_car'/>
    <trip id="early_108" depart="18162.00" from="-53103882#0" to="54985279#5" type='early_morning_car'/>
    <trip id="early_109" depart="18163.50" from="170590845" to="-54985279#3" type='early_morning_car'/>
    <trip id="early_110" depart="18165.00" from="-25504350#0" to="25684551#5" type='early_morning_car'/>
    <trip id="early_111" depart="18166.50" from="-25504350#3" to="-25684551#9" type='early_morning_car'/>
    <trip id="early_112" depart="18168.00" from="-54985260#16" to="277523407#2" type='early_morning_car'/>
    <trip id="early_113" depart="18169.50" from="25684557#4" to="-1395767648#0" type='early_morning_car'/>
    <trip id="early_114" depart="18171.00" from="192981425#0" to="-580760138#3" type='early_morning_car'/>
    <trip id="early_115" depart="18172.50" from="-54985279#4" to="-51095934#1" type='early_morning_car'/>
    <trip id="early_116" depart="18174.00" from="-622102031#1" to="-50831916#1" type='early_morning_car'/>
    <trip id="early_117" depart="18175.50" from="-25504350#6" to="186475564#3" type='early_morning_car'/>
    <trip id="early_118" depart="18177.00" from="262767663#1" to="622102031#0" type='early_morning_car'/>
    <trip id="early_119" depart="18178.50" from="326037134#1" to="-622102031#6" type='early_morning_car'/>
    <trip id="early_120" depart="18180.00" from="-50831918#1" to="-326037134#0" type='early_morning_car'/>
    <trip id="early_121" depart="18181.50" from="-1204274369" to="-52152425#0" type='early_morning_car'/>
    <trip id="early_122" depart="18183.00" from="192987238#4" to="53103893#0" type='early_morning_car'/>
    <trip id="early_123" depart="18184.50" from="183263069#1" to="309448838" type='early_morning_car'/>
    <trip id="early_124" depart="18186.00" from="-51095930#2" to="25684557#3" type='early_morning_car'/>
    <trip id="early_125" depart="18187.50" from="50831915#10" to="-54985260#2" type='early_morning_car'/>
    <trip id="early_126" depart="18189.00" from="25684557#5" to="-1124346622#0" type='early_morning_car'/>
    <trip id="early_127" depart="18190.50" from="88247764#1" to="130503625#1" type='early_morning_car'/>
    <trip id="early_128" depart="18192.00" from="829563410#1" to="475735005" type='early_morning_car'/>
    <trip id="early_129" depart="18193.50" from="54985260#11" to="622102030#1" type='early_morning_car'/>
    <trip id="early_130" depart="18195.00" from="580760138#0" to="-622102031#7" type='early_morning_car'/>
    <trip id="early_131" depart="18196.50" from="88247764#0" to="622102031#7" type='early_morning_car'/>
    <trip id="early_132" depart="18198.00" from="-54985260#12" to="-50831915#3" type='early_morning_car'/>
    <trip id="early_133" depart="18199.50" from="-54985260#3" to="25684557#5" type='early_morning_car'/>
    <trip id="early_134" depart="18201.00" from="183263068#0" to="130503625#2" type='early_morning_car'/>
    <trip id="early_135" depart="18202.50" from="51095930#1" to="25486114#0" type='early_morning_car'/>
    <trip id="early_136" depart="18204.00" from="-477271462#2" to="25684557#1" type='early_morning_car'/>
    <trip id="early_137" depart="18205.50" from="-25684557#2" to="54985279#1" type='early_morning_car'/>
    <trip id="early_138" depart="18207.00" from="622102031#4" to="51095934#7" type='early_morning_car'/>
    <trip id="early_139" depart="18208.50" from="-183263068#0" to="-620932850#3" type='early_morning_car'/>
    <trip id="early_140" depart="18210.00" from="50449361#1" to="-25684557#4" type='early_morning_car'/>
    <trip id="early_141" depart="18211.50" from="50449361#4" to="88247764#9" type='early_morning_car'/>
    <trip id="early_142" depart="18213.00" from="-1177906287#0" to="-50831916#0" type='early_morning_car'/>
    <trip id="early_143" depart="18214.50" from="53369130#0" to="25486114#1" type='early_morning_car'/>
    <trip id="early_144" depart="18216.00" from="-54985279#3" to="64973297#1" type='early_morning_car'/>
    <trip id="early_145" depart="18217.50" from="170083666#0" to="277523407#0" type='early_morning_car'/>
    <trip id="early_146" depart="18219.00" from="-183263068#1" to="50831914#1" type='early_morning_car'/>
    <trip id="early_147" depart="18220.50" from="-53369130#2" to="-51095934#6" type='early_morning_car'/>
    <trip id="early_148" depart="18222.00" from="-1395767642" to="25504350#2" type='early_morning_car'/>
    <trip id="early_149" depart="18223.50" from="51095930#0" to="-477271462#2" type='early_morning_car'/>
    <trip id="early_150" depart="18225.00" from="-51095934#5" to="186475564#2" type='early_morning_car'/>
    <trip id="early_151" depart="18226.50" from="-54985260#3" to="87080018" type='early_morning_car'/>
    <trip id="early_152" depart="18228.00" from="-477271462#2" to="50831915#4" type='early_morning_car'/>
    <trip id="early_153" depart="18229.50" from="-1124346622#0" to="25504350#7" type='early_morning_car'/>
    <trip id="early_154" depart="18231.00" from="1075767203#0" to="-88247764#2" type='early_morning_car'/>
    <trip id="early_155" depart="18232.50" from="51095934#3" to="54985279#5" type='early_morning_car'/>
    <trip id="early_156" depart="18234.00" from="88247764#1" to="88247764#8" type='early_morning_car'/>
    <trip id="early_157" depart="18235.50" from="-326037134#1" to="170094573" type='early_morning_car'/>
    <trip id="early_158" depart="18237.00" from="-475735004" to="186475564#1" type='early_morning_car'/>
    <trip id="early_159" depart="18238.50" from="-326037133#0" to="54985260#9" type='early_morning_car'/>
    <trip id="early_160" depart="18240.00" from="1463043806" to="54985260#6" type='early_morning_car'/>
    <trip id="early_161" depart="18241.50" from="25684551#9" to="-1075767203#0" type='early_morning_car'/>
    <trip id="early_162" depart="18243.00" from="-54985279#0" to="-620932850#1" type='early_morning_car'/>
    <trip id="early_163" depart="18244.50" from="25504350#1" to="-25684551#9" type='early_morning_car'/>
    <trip id="early_164" depart="18246.00" from="54985260#2" to="50449361#7" type='early_morning_car'/>
    <trip id="early_165" depart="18247.50" from="-54985279#3" to="25684551#4" type='early_morning_car'/>
    <trip id="early_166" depart="18249.00" from="25684557#1" to="-54985279#5" type='early_morning_car'/>
    <trip id="early_167" depart="18250.50" from="326037134#1" to="1124346622#2" type='early_morning_car'/>
    <trip id="early_168" depart="18252.00" from="192987238#1" to="-25486115#1" type='early_morning_car'/>
    <trip id="early_169" depart="18253.50" from="50831917" to="-25504350#0" type='early_morning_car'/>
    <trip id="early_170" depart="18255.00" from="50831915#1" to="-50831919#0" type='early_morning_car'/>
    <trip id="early_171" depart="18256.50" from="-53103893#1" to="170083666#2" type='early_morning_car'/>
    <trip id="early_172" depart="18258.00" from="49830666#6" to="54985260#11" type='early_morning_car'/>
    <trip id="early_173" depart="18259.50" from="-620932850#0" to="-50449361#2" type='early_morning_car'/>
    <trip id="early_174" depart="18261.00" from="51095930#0" to="-829563410#0" type='early_morning_car'/>
    <trip id="early_175" depart="18262.50" from="-25684557#3" to="50831915#2" type='early_morning_car'/>
    <trip id="early_176" depart="18264.00" from="25684557#5" to="-25684557#0" type='early_morning_car'/>
    <trip id="early_177" depart="18265.50" from="-51095934#0" to="53103882#0" type='early_morning_car'/>
    <trip id="early_178" depart="18267.00" from="-53103882#0" to="53103893#1" type='early_morning_car'/>
    <trip id="early_179" depart="18268.50" from="-64973297#1" to="-326037133#1" type='early_morning_car'/>
    <trip id="early_180" depart="18270.00" from="25684551#1" to="-51095930#2" type='early_morning_car'/>
    <trip id="early_181" depart="18271.50" from="829563410#1" to="192981425#0" type='early_morning_car'/>
    <trip id="early_182" depart="18273.00" from="-25504350#5" to="-53369130#1" type='early_morning_car'/>
    <trip id="early_183" depart="18274.50" from="-88247764#1" to="-635143862#0" type='early_morning_car'/>
    <trip id="early_184" depart="18276.00" from="326037133#1" to="620932850#2" type='early_morning_car'/>
    <trip id="early_185" depart="18277.50" from="580760138#1" to="53369130#1" type='early_morning_car'/>
    <trip id="early_186" depart="18279.00" from="622102031#5" to="37177801#2" type='early_morning_car'/>
    <trip id="early_187" depart="18280.50" from="174648253" to="-50831915#7" type='early_morning_car'/>
    <trip id="early_188" depart="18282.00" from="-54985260#15" to="-54985260#8" type='early_morning_car'/>
    <trip id="early_189" depart="18283.50" from="620932850#0" to="50449361#6" type='early_morning_car'/>
    <trip id="early_190" depart="18285.00" from="-1124346622#0" to="192981424#7" type='early_morning_car'/>
    <trip id="early_191" depart="18286.50" from="-50831918#0" to="-54985260#9" type='early_morning_car'/>
    <trip id="early_192" depart="18288.00" from="25684551#9" to="-829563410#2" type='early_morning_car'/>
    <trip id="early_193" depart="18289.50" from="50831916#1" to="1331576371#0" type='early_morning_car'/>
    <trip id="early_194" depart="18291.00" from="54985260#8" to="-54985279#2" type='early_morning_car'/>
    <trip id="early_195" depart="18292.50" from="-1331576371#1" to="-50831916#1" type='early_morning_car'/>
    <trip id="early_196" depart="18294.00" from="-25504350#4" to="54985260#0" type='early_morning_car'/>
    <trip id="early_197" depart="18295.50" from="-51095934#0" to="-130503625#0" type='early_morning_car'/>
    <trip id="early_198" depart="18297.00" from="-50449361#6" to="1177906287#0" type='early_morning_car'/>
    <trip id="early_199" depart="18298.50" from="-51095934#12" to="25684557#2" type='early_morning_car'/>
    <trip id="early_200" depart="18300.00" from="-170094575#2" to="477271462#5" type='early_morning_car'/>
    <trip id="early_201" depart="18301.50" from="170094575#2" to="-1124346622#0" type='early_morning_car'/>
    <trip id="early_202" depart="18303.00" from="-186475564#2" to="-54985260#8" type='early_morning_car'/>
    <trip id="early_203" depart="18304.50" from="-50831915#1" to="1204274369" type='early_morning_car'/>
    <trip id="early_204" depart="18306.00" from="25504350#0" to="-50449361#0" type='early_morning_car'/>
    <trip id="early_205" depart="18307.50" from="49830666#0" to="477271462#0" type='early_morning_car'/>
    <trip id="early_206" depart="18309.00" from="186475564#2" to="-25684551#0" type='early_morning_car'/>
    <trip id="early_207" depart="18310.50" from="-51095934#1" to="-88247764#10" type='early_morning_car'/>
    <trip id="early_208" depart="18312.00" from="-477271462#1" to="50831915#0" type='early_morning_car'/>
    <trip id="early_209" depart="18313.50" from="88247764#5" to="88247764#4" type='early_morning_car'/>
    <trip id="early_210" depart="18315.00" from="580760138#2" to="326037134#0" type='early_morning_car'/>
    <trip id="early_211" depart="18316.50" from="-54985260#11" to="-54985279#5" type='early_morning_car'/>
    <trip id="early_212" depart="18318.00" from="25504350#0" to="-51095934#3" type='early_morning_car'/>
    <trip id="early_213" depart="18319.50" from="54985260#6" to="53103893#0" type='early_morning_car'/>
    <trip id="early_214" depart="18321.00" from="-1331576371#0" to="1395767647#0" type='early_morning_car'/>
    <trip id="early_215" depart="18322.50" from="-50831918#1" to="50831915#7" type='early_morning_car'/>
    <trip id="early_216" depart="18324.00" from="-50449361#2" to="-51543398#0" type='early_morning_car'/>
    <trip id="early_217" depart="18325.50" from="53103882#0" to="-622102031#7" type='early_morning_car'/>
    <trip id="early_218" depart="18327.00" from="-50831915#0" to="-170094575#3" type='early_morning_car'/>
    <trip id="early_219" depart="18328.50" from="-622102030#1" to="-183263069#1" type='early_morning_car'/>
    <trip id="early_220" depart="18330.00" from="49830666#5" to="326037134#1" type='early_morning_car'/>
    <trip id="early_221" depart="18331.50" from="326037134#1" to="50831917" type='early_morning_car'/>
    <trip id="early_222" depart="18333.00" from="-51095934#7" to="1395767642" type='early_morning_car'/>
    <trip id="early_223" depart="18334.50" from="170083666#2" to="-54985260#6" type='early_morning_car'/>
    <trip id="early_224" depart="18336.00" from="-475735005" to="88247764#5" type='early_morning_car'/>
    <trip id="early_225" depart="18337.50" from="54985260#11" to="-50449361#1" type='early_morning_car'/>
    <trip id="early_226" depart="18339.00" from="-50831919#0" to="622102031#6" type='early_morning_car'/>
    <trip id="early_227" depart="18340.50" from="-54985279#4" to="-25684551#0" type='early_morning_car'/>
    <trip id="early_228" depart="18342.00" from="25504350#1" to="-50831915#9" type='early_morning_car'/>
    <trip id="early_229" depart="18343.50" from="-88247764#3" to="-50831915#6" type='early_morning_car'/>
    <trip id="early_230" depart="18345.00" from="1395767648#0" to="170094575#3" type='early_morning_car'/>
    <trip id="early_231" depart="18346.50" from="1395767649#0" to="51095934#11" type='early_morning_car'/>
    <trip id="early_232" depart="18348.00" from="-51095934#1" to="54985260#3" type='early_morning_car'/>
    <trip id="early_233" depart="18349.50" from="1124346622#0" to="192981424#7" type='early_morning_car'/>
    <trip id="early_234" depart="18351.00" from="88247764#8" to="-622102031#4" type='early_morning_car'/>
    <trip id="early_235" depart="18352.50" from="-25684557#1" to="192981424#2" type='early_morning_car'/>
    <trip id="early_236" depart="18354.00" from="88247764#10" to="50831914#0" type='early_morning_car'/>
    <trip id="early_237" depart="18355.50" from="-25684551#1" to="51095934#8" type='early_morning_car'/>
    <trip id="early_238" depart="18357.00" from="25684557#5" to="-174648253" type='early_morning_car'/>
    <trip id="early_239" depart="18358.50" from="277523407#0" to="-1395767649#0" type='early_morning_car'/>
    <trip id="early_240" depart="18360.00" from="51095930#1" to="622102031#3" type='early_morning_car'/>
    <trip id="early_241" depart="18361.50" from="170094575#3" to="-580760138#3" type='early_morning_car'/>
    <trip id="early_242" depart="18363.00" from="-88247764#1" to="-50449361#6" type='early_morning_car'/>
    <trip id="early_243" depart="18364.50" from="-1395767648#0" to="-50449361#6" type='early_morning_car'/>
    <trip id="early_244" depart="18366.00" from="1124346622#0" to="186475564#4" type='early_morning_car'/>
    <trip id="early_245" depart="18367.50" from="-130503625#0" to="-50831916#1" type='early_morning_car'/>
    <trip id="early_246" depart="18369.00" from="-54985260#6" to="186475564#3" type='early_morning_car'/>
    <trip id="early_247" depart="18370.50" from="-88247764#4" to="50831915#4" type='early_morning_car'/>
    <trip id="early_248" depart="18372.00" from="-25684557#3" to="-54985260#5" type='early_morning_car'/>
    <trip id="early_249" depart="18373.50" from="49830666#2" to="-170094572#2" type='early_morning_car'/>
    <trip id="early_250" depart="18375.00" from="-1124346621" to="-25504350#3" type='early_morning_car'/>
    <trip id="early_251" depart="18376.50" from="192987238#1" to="49830666#4" type='early_morning_car'/>
    <trip id="early_252" depart="18378.00" from="51095934#4" to="-51095934#4" type='early_morning_car'/>
    <trip id="early_253" depart="18379.50" from="50831915#2" to="-477271462#3" type='early_morning_car'/>
    <trip id="early_254" depart="18381.00" from="-477271462#4" to="51095934#8" type='early_morning_car'/>
    <trip id="early_255" depart="18382.50" from="-622102031#2" to="-88247764#6" type='early_morning_car'/>
    <trip id="early_256" depart="18384.00" from="51543398#1" to="-50449361#0" type='early_morning_car'/>
    <trip id="early_257" depart="18385.50" from="-50831915#11" to="829563410#1" type='early_morning_car'/>
    <trip id="early_258" depart="18387.00" from="-50831914#0" to="-477271462#0" type='early_morning_car'/>
    <trip id="early_259" depart="18388.50" from="88247764#6" to="-88247764#2" type='early_morning_car'/>
    <trip id="early_260" depart="18390.00" from="-622102031#2" to="54985260#10" type='early_morning_car'/>
    <trip id="early_261" depart="18391.50" from="477271462#3" to="829563410#1" type='early_morning_car'/>
    <trip id="early_262" depart="18393.00" from="622102031#3" to="25684551#1" type='early_morning_car'/>
    <trip id="early_263" depart="18394.50" from="-186475564#0" to="54985279#3" type='early_morning_car'/>
    <trip id="early_264" depart="18396.00" from="50449361#4" to="-25684551#3" type='early_morning_car'/>
    <trip id="early_265" depart="18397.50" from="-170094575#2" to="50449361#2" type='early_morning_car'/>
    <trip id="early_266" depart="18399.00" from="25684487" to="-477271462#0" type='early_morning_car'/>
    <trip id="early_267" depart="18400.50" from="-477271462#3" to="622102031#6" type='early_morning_car'/>
    <trip id="early_268" depart="18402.00" from="88247764#2" to="-1395767648#1" type='early_morning_car'/>
    <trip id="early_269" depart="18403.50" from="829563410#1" to="277523407#2" type='early_morning_car'/>
    <trip id="early_270" depart="18405.00" from="580760138#3" to="51095934#10" type='early_morning_car'/>
    <trip id="early_271" depart="18406.50" from="-51095934#2" to="-620932850#0" type='early_morning_car'/>
    <trip id="early_272" depart="18408.00" from="-1124346622#0" to="170094575#1" type='early_morning_car'/>
    <trip id="early_273" depart="18409.50" from="54985260#7" to="53103893#0" type='early_morning_car'/>
    <trip id="early_274" depart="18411.00" from="1124346621" to="-25684557#4" type='early_morning_car'/>
    <trip id="early_275" depart="18412.50" from="51095934#0" to="192981424#7" type='early_morning_car'/>
    <trip id="early_276" depart="18414.00" from="829563410#0" to="1124346622#2" type='early_morning_car'/>
    <trip id="early_277" depart="18415.50" from="25504350#1" to="25504350#2" type='early_morning_car'/>