<?xml version="1.0" encoding="UTF-8"?>

<!-- generated on 2026-03-12 22:49:52.971293 by Eclipse SUMO randomTrips.py v1_26_0+0000-fa7df22d7f1
<configuration>
    <net-file value=".\data\networks\city_006.net.xml"/>
    <output-trip-file value=".\data\routes\scenarios_03\evening.rou.xml"/>
    <prefix value="evening_"/>
    <trip-attributes value="type='afternoon_car'"/>
    <seed value="2026"/>
    <begin value="68400.0"/>
    <end value="79200.0"/>
    <period value="1.5"/>
</configuration>
-->

<routes xmlns:xsi="http://www.w3.org/2001/XMLSchema-instance" xsi:noNamespaceSchemaLocation="http://sumo.dlr.de/xsd/routes_file.xsd">
    <trip id="evening_0" depart="68400.00" from="1395767649#0" to="54985260#12" type='afternoon_car'/>
    <trip id="evening_1" depart="68401.50" from="-25486114#0" to="-50831917" type='afternoon_car'/>
    <trip id="evening_2" depart="68403.00" from="25486115#1" to="192981424#6" type='afternoon_car'/>
    <trip id="evening_3" depart="68404.50" from="50831918#0" to="192981424#0" type='afternoon_car'/>
    <trip id="evening_4" depart="68406.00" from="50449361#1" to="50831918#0" type='afternoon_car'/>
    <trip id="evening_5" depart="68407.50" from="50831915#0" to="25486115#2" type='afternoon_car'/>
    <trip id="evening_6" depart="68409.00" from="-50831915#8" to="25684551#3" type='afternoon_car'/>
    <trip id="evening_7" depart="68410.50" from="-25504350#0" to="51095934#8" type='afternoon_car'/>
    <trip id="evening_8" depart="68412.00" from="-829563410#2" to="51095934#7" type='afternoon_car'/>
    <trip id="evening_9" depart="68413.50" from="-50449361#7" to="-51095934#2" type='afternoon_car'/>
    <trip id="evening_10" depart="68415.00" from="88247764#10" to="622102030#2" type='afternoon_car'/>
    <trip id="evening_11" depart="68416.50" from="1395767649#0" to="-25486114#0" type='afternoon_car'/>
    <trip id="evening_12" depart="68418.00" from="-54985260#10" to="192981424#6" type='afternoon_car'/>
    <trip id="evening_13" depart="68419.50" from="-51095934#4" to="1177906287#0" type='afternoon_car'/>
    <trip id="evening_14" depart="68421.00" from="54985260#3" to="49830666#4" type='afternoon_car'/>
    <trip id="evening_15" depart="68422.50" from="49830666#0" to="-580760138#6" type='afternoon_car'/>
    <trip id="evening_16" depart="68424.00" from="-622102031#2" to="-622102031#7" type='afternoon_car'/>
    <trip id="evening_17" depart="68425.50" from="192987238#1" to="1395767649#0" type='afternoon_car'/>
    <trip id="evening_18" depart="68427.00" from="-25504350#2" to="170083666#2" type='afternoon_car'/>
    <trip id="evening_19" depart="68428.50" from="50831915#0" to="25504350#5" type='afternoon_car'/>
    <trip id="evening_20" depart="68430.00" from="1124346622#1" to="580760138#6" type='afternoon_car'/>
    <trip id="evening_21" depart="68431.50" from="-50831919#1" to="-88247764#10" type='afternoon_car'/>
    <trip id="evening_22" depart="68433.00" from="620932850#1" to="1331576371#1" type='afternoon_car'/>
    <trip id="evening_23" depart="68434.50" from="-50831915#11" to="-25684557#0" type='afternoon_car'/>
    <trip id="evening_24" depart="68436.00" from="-1395767647#0" to="49830666#4" type='afternoon_car'/>
    <trip id="evening_25" depart="68437.50" from="25684487" to="130503625#0" type='afternoon_car'/>
    <trip id="evening_26" depart="68439.00" from="1075767203#1" to="-51095930#0" type='afternoon_car'/>
    <trip id="evening_27" depart="68440.50" from="54985260#7" to="25684557#0" type='afternoon_car'/>
    <trip id="evening_28" depart="68442.00" from="-88247764#1" to="130503625#0" type='afternoon_car'/>
    <trip id="evening_29" depart="68443.50" from="620932850#3" to="88247764#4" type='afternoon_car'/>
    <trip id="evening_30" depart="68445.00" from="170590846" to="192981424#7" type='afternoon_car'/>
    <trip id="evening_31" depart="68446.50" from="277523407#1" to="-54985260#12" type='afternoon_car'/>
    <trip id="evening_32" depart="68448.00" from="-88247764#9" to="54985260#7" type='afternoon_car'/>
    <trip id="evening_33" depart="68449.50" from="-622102031#6" to="-53369130#1" type='afternoon_car'/>
    <trip id="evening_34" depart="68451.00" from="-51095934#0" to="-1395767649#0" type='afternoon_car'/>
    <trip id="evening_35" depart="68452.50" from="25684557#4" to="25504350#4" type='afternoon_car'/>
    <trip id="evening_36" depart="68454.00" from="-88247764#1" to="170094575#1" type='afternoon_car'/>
    <trip id="evening_37" depart="68455.50" from="1124346622#0" to="620932850#1" type='afternoon_car'/>
    <trip id="evening_38" depart="68457.00" from="1395767648#1" to="51510531#1" type='afternoon_car'/>
    <trip id="evening_39" depart="68458.50" from="580760138#0" to="52152425#1" type='afternoon_car'/>
    <trip id="evening_40" depart="68460.00" from="-186475564#3" to="477271462#4" type='afternoon_car'/>
    <trip id="evening_41" depart="68461.50" from="64973297#1" to="53103893#1" type='afternoon_car'/>
    <trip id="evening_42" depart="68463.00" from="-88247764#9" to="-183263068#0" type='afternoon_car'/>
    <trip id="evening_43" depart="68464.50" from="-51095930#2" to="1395767649#0" type='afternoon_car'/>
    <trip id="evening_44" depart="68466.00" from="-186475564#2" to="50831915#4" type='afternoon_car'/>
    <trip id="evening_45" depart="68467.50" from="-622102030#1" to="1124346622#0" type='afternoon_car'/>
    <trip id="evening_46" depart="68469.00" from="-1124346622#2" to="-1075767203#0" type='afternoon_car'/>
    <trip id="evening_47" depart="68470.50" from="192981425#1" to="622102030#3" type='afternoon_car'/>
    <trip id="evening_48" depart="68472.00" from="-183263068#0" to="51095934#12" type='afternoon_car'/>
    <trip id="evening_49" depart="68473.50" from="-50831916#1" to="25684551#6" type='afternoon_car'/>
    <trip id="evening_50" depart="68475.00" from="50831915#1" to="635143862#0" type='afternoon_car'/>
    <trip id="evening_51" depart="68476.50" from="277523407#1" to="25684557#4" type='afternoon_car'/>
    <trip id="evening_52" depart="68478.00" from="192987238#0" to="50831918#0" type='afternoon_car'/>
    <trip id="evening_53" depart="68479.50" from="622102031#4" to="1395767647#1" type='afternoon_car'/>
    <trip id="evening_54" depart="68481.00" from="49830666#4" to="-25684557#3" type='afternoon_car'/>
    <trip id="evening_55" depart="68482.50" from="-50831915#10" to="25504350#0" type='afternoon_car'/>
    <trip id="evening_56" depart="68484.00" from="622102031#7" to="54985260#4" type='afternoon_car'/>
    <trip id="evening_57" depart="68485.50" from="277523407#1" to="622102031#0" type='afternoon_car'/>
    <trip id="evening_58" depart="68487.00" from="50831919#0" to="580760138#6" type='afternoon_car'/>
    <trip id="evening_59" depart="68488.50" from="-51510530" to="-829563410#1" type='afternoon_car'/>
    <trip id="evening_60" depart="68490.00" from="-25486115#1" to="54985260#9" type='afternoon_car'/>
    <trip id="evening_61" depart="68491.50" from="-1395767647#1" to="-54985279#5" type='afternoon_car'/>
    <trip id="evening_62" depart="68493.00" from="-54985260#16" to="50831918#0" type='afternoon_car'/>
    <trip id="evening_63" depart="68494.50" from="-53103899" to="-54985260#10" type='afternoon_car'/>
    <trip id="evening_64" depart="68496.00" from="170083666#1" to="-88247764#7" type='afternoon_car'/>
    <trip id="evening_65" depart="68497.50" from="-54985260#1" to="25504350#4" type='afternoon_car'/>
    <trip id="evening_66" depart="68499.00" from="326037133#1" to="-186475564#1" type='afternoon_car'/>
    <trip id="evening_67" depart="68500.50" from="-580760138#6" to="-50831915#1" type='afternoon_car'/>
    <trip id="evening_68" depart="68502.00" from="580760138#6" to="-170094572#4" type='afternoon_car'/>
    <trip id="evening_69" depart="68503.50" from="170590846" to="53103893#0" type='afternoon_car'/>
    <trip id="evening_70" depart="68505.00" from="-477271462#2" to="49830666#7" type='afternoon_car'/>
    <trip id="evening_71" depart="68506.50" from="54985260#3" to="-25684557#1" type='afternoon_car'/>
    <trip id="evening_72" depart="68508.00" from="170094572#3" to="51095934#0" type='afternoon_car'/>
    <trip id="evening_73" depart="68509.50" from="170083666#0" to="635143862#0" type='afternoon_car'/>
    <trip id="evening_74" depart="68511.00" from="-25684557#5" to="53103899" type='afternoon_car'/>
    <trip id="evening_75" depart="68512.50" from="-622102030#2" to="-25486115#0" type='afternoon_car'/>
    <trip id="evening_76" depart="68514.00" from="-51510530" to="-54985279#4" type='afternoon_car'/>
    <trip id="evening_77" depart="68515.50" from="-51095930#1" to="1395767648#1" type='afternoon_car'/>
    <trip id="evening_78" depart="68517.00" from="50831917" to="-88247764#0" type='afternoon_car'/>
    <trip id="evening_79" depart="68518.50" from="-88247764#4" to="-54985260#6" type='afternoon_car'/>
    <trip id="evening_80" depart="68520.00" from="51095934#1" to="51095934#13" type='afternoon_car'/>
    <trip id="evening_81" depart="68521.50" from="51095934#5" to="53369130#1" type='afternoon_car'/>
    <trip id="evening_82" depart="68523.00" from="-50831915#4" to="626880271#0" type='afternoon_car'/>
    <trip id="evening_83" depart="68524.50" from="54985260#4" to="277523407#1" type='afternoon_car'/>
    <trip id="evening_84" depart="68526.00" from="-620932850#3" to="51095930#2" type='afternoon_car'/>
    <trip id="evening_85" depart="68527.50" from="53369130#0" to="37177801#3" type='afternoon_car'/>
    <trip id="evening_86" depart="68529.00" from="635143862#0" to="-580760138#1" type='afternoon_car'/>
    <trip id="evening_87" depart="68530.50" from="-25684557#4" to="192981425#0" type='afternoon_car'/>
    <trip id="evening_88" depart="68532.00" from="-25486115#2" to="50449361#2" type='afternoon_car'/>
    <trip id="evening_89" depart="68533.50" from="-50831914#1" to="-53369130#1" type='afternoon_car'/>
    <trip id="evening_90" depart="68535.00" from="-51095934#0" to="192981424#6" type='afternoon_car'/>
    <trip id="evening_91" depart="68536.50" from="622102031#6" to="-50449361#0" type='afternoon_car'/>
    <trip id="evening_92" depart="68538.00" from="49830666#5" to="-50449361#6" type='afternoon_car'/>
    <trip id="evening_93" depart="68539.50" from="25684551#10" to="170083666#2" type='afternoon_car'/>
    <trip id="evening_94" depart="68541.00" from="-51095934#12" to="53103882#1" type='afternoon_car'/>
    <trip id="evening_95" depart="68542.50" from="-51095930#0" to="-183263068#0" type='afternoon_car'/>
    <trip id="evening_96" depart="68544.00" from="-622102030#1" to="54985279#3" type='afternoon_car'/>
    <trip id="evening_97" depart="68545.50" from="50831916#1" to="-829563410#2" type='afternoon_car'/>
    <trip id="evening_98" depart="68547.00" from="-1124346622#2" to="-25504350#3" type='afternoon_car'/>
    <trip id="evening_99" depart="68548.50" from="622102030#2" to="-580760138#1" type='afternoon_car'/>
    <trip id="evening_100" depart="68550.00" from="50831917" to="25684551#1" type='afternoon_car'/>
    <trip id="evening_101" depart="68551.50" from="25684557#4" to="25684551#3" type='afternoon_car'/>
    <trip id="evening_102" depart="68553.00" from="620932850#1" to="-54985260#2" type='afternoon_car'/>
    <trip id="evening_103" depart="68554.50" from="88247764#1" to="54985260#5" type='afternoon_car'/>
    <trip id="evening_104" depart="68556.00" from="326037134#0" to="620932850#2" type='afternoon_car'/>
    <trip id="evening_105" depart="68557.50" from="-54985260#2" to="50831915#1" type='afternoon_car'/>
    <trip id="evening_106" depart="68559.00" from="622102031#7" to="51095934#15" type='afternoon_car'/>
    <trip id="evening_107" depart="68560.50" from="-25504350#5" to="50831918#0" type='afternoon_car'/>
    <trip id="evening_108" depart="68562.00" from="-53103882#0" to="54985279#5" type='afternoon_car'/>
    <trip id="evening_109" depart="68563.50" from="170590845" to="-54985279#3" type='afternoon_car'/>
    <trip id="evening_110" depart="68565.00" from="-25504350#0" to="25684551#5" type='afternoon_car'/>
    <trip id="evening_111" depart="68566.50" from="-25504350#3" to="-25684551#9" type='afternoon_car'/>
    <trip id="evening_112" depart="68568.00" from="-54985260#16" to="277523407#2" type='afternoon_car'/>
    <trip id="evening_113" depart="68569.50" from="25684557#4" to="-1395767648#0" type='afternoon_car'/>
    <trip id="evening_114" depart="68571.00" from="192981425#0" to="-580760138#3" type='afternoon_car'/>
    <trip id="evening_115" depart="68572.50" from="-54985279#4" to="-51095934#1" type='afternoon_car'/>
    <trip id="evening_116" depart="68574.00" from="-622102031#1" to="-50831916#1" type='afternoon_car'/>
    <trip id="evening_117" depart="68575.50" from="-25504350#6" to="186475564#3" type='afternoon_car'/>
    <trip id="evening_118" depart="68577.00" from="262767663#1" to="622102031#0" type='afternoon_car'/>
    <trip id="evening_119" depart="68578.50" from="326037134#1" to="-622102031#6" type='afternoon_car'/>
    <trip id="evening_120" depart="68580.00" from="-50831918#1" to="-326037134#0" type='afternoon_car'/>
    <trip id="evening_121" depart="68581.50" from="-1204274369" to="-52152425#0" type='afternoon_car'/>
    <trip id="evening_122" depart="68583.00" from="192987238#4" to="53103893#0" type='afternoon_car'/>
    <trip id="evening_123" depart="68584.50" from="183263069#1" to="309448838" type='afternoon_car'/>
    <trip id="evening_124" depart="68586.00" from="-51095930#2" to="25684557#3" type='afternoon_car'/>
    <trip id="evening_125" depart="68587.50" from="50831915#10" to="-54985260#2" type='afternoon_car'/>
    <trip id="evening_126" depart="68589.00" from="25684557#5" to="-1124346622#0" type='afternoon_car'/>
    <trip id="evening_127" depart="68590.50" from="88247764#1" to="130503625#1" type='afternoon_car'/>
    <trip id="evening_128" depart="68592.00" from="829563410#1" to="475735005" type='afternoon_car'/>
    <trip id="evening_129" depart="68593.50" from="54985260#11" to="622102030#1" type='afternoon_car'/>
    <trip id="evening_130" depart="68595.00" from="580760138#0" to="-622102031#7" type='afternoon_car'/>
    <trip id="evening_131" depart="68596.50" from="88247764#0" to="622102031#7" type='afternoon_car'/>
    <trip id="evening_132" depart="68598.00" from="-54985260#12" to="-50831915#3" type='afternoon_car'/>
    <trip id="evening_133" depart="68599.50" from="-54985260#3" to="25684557#5" type='afternoon_car'/>
    <trip id="evening_134" depart="68601.00" from="183263068#0" to="130503625#2" type='afternoon_car'/>
    <trip id="evening_135" depart="68602.50" from="51095930#1" to="25486114#0" type='afternoon_car'/>
    <trip id="evening_136" depart="68604.00" from="-477271462#2" to="25684557#1" type='afternoon_car'/>
    <trip id="evening_137" depart="68605.50" from="-25684557#2" to="54985279#1" type='afternoon_car'/>
    <trip id="evening_138" depart="68607.00" from="622102031#4" to="51095934#7" type='afternoon_car'/>
    <trip id="evening_139" depart="68608.50" from="-183263068#0" to="-620932850#3" type='afternoon_car'/>
    <trip id="evening_140" depart="68610.00" from="50449361#1" to="-25684557#4" type='afternoon_car'/>
    <trip id="evening_141" depart="68611.50" from="50449361#4" to="88247764#9" type='afternoon_car'/>
    <trip id="evening_142" depart="68613.00" from="-1177906287#0" to="-50831916#0" type='afternoon_car'/>
    <trip id="evening_143" depart="68614.50" from="53369130#0" to="25486114#1" type='afternoon_car'/>
    <trip id="evening_144" depart="68616.00" from="-54985279#3" to="64973297#1" type='afternoon_car'/>
    <trip id="evening_145" depart="68617.50" from="170083666#0" to="277523407#0" type='afternoon_car'/>
    <trip id="evening_146" depart="68619.00" from="-183263068#1" to="50831914#1" type='afternoon_car'/>
    <trip id="evening_147" depart="68620.50" from="-53369130#2" to="-51095934#6" type='afternoon_car'/>
    <trip id="evening_148" depart="68622.00" from="-1395767642" to="25504350#2" type='afternoon_car'/>
    <trip id="evening_149" depart="68623.50" from="51095930#0" to="-477271462#2" type='afternoon_car'/>
    <trip id="evening_150" depart="68625.00" from="-51095934#5" to="186475564#2" type='afternoon_car'/>
    <trip id="evening_151" depart="68626.50" from="-54985260#3" to="87080018" type='afternoon_car'/>
    <trip id="evening_152" depart="68628.00" from="-477271462#2" to="50831915#4" type='afternoon_car'/>
    <trip id="evening_153" depart="68629.50" from="-1124346622#0" to="25504350#7" type='afternoon_car'/>
    <trip id="evening_154" depart="68631.00" from="1075767203#0" to="-88247764#2" type='afternoon_car'/>
    <trip id="evening_155" depart="68632.50" from="51095934#3" to="54985279#5" type='afternoon_car'/>
    <trip id="evening_156" depart="68634.00" from="88247764#1" to="88247764#8" type='afternoon_car'/>
    <trip id="evening_157" depart="68635.50" from="-326037134#1" to="170094573" type='afternoon_car'/>
    <trip id="evening_158" depart="68637.00" from="-475735004" to="186475564#1" type='afternoon_car'/>
    <trip id="evening_159" depart="68638.50" from="-326037133#0" to="54985260#9" type='afternoon_car'/>
    <trip id="evening_160" depart="68640.00" from="1463043806" to="54985260#6" type='afternoon_car'/>
    <trip id="evening_161" depart="68641.50" from="25684551#9" to="-1075767203#0" type='afternoon_car'/>
    <trip id="evening_162" depart="68643.00" from="-54985279#0" to="-620932850#1" type='afternoon_car'/>
    <trip id="evening_163" depart="68644.50" from="25504350#1" to="-25684551#9" type='afternoon_car'/>
    <trip id="evening_164" depart="68646.00" from="54985260#2" to="50449361#7" type='afternoon_car'/>
    <trip id="evening_165" depart="68647.50" from="-54985279#3" to="25684551#4" type='afternoon_car'/>
    <trip id="evening_166" depart="68649.00" from="25684557#1" to="-54985279#5" type='afternoon_car'/>
    <trip id="evening_167" depart="68650.50" from="326037134#1" to="1124346622#2" type='afternoon_car'/>
    <trip id="evening_168" depart="68652.00" from="192987238#1" to="-25486115#1" type='afternoon_car'/>
    <trip id="evening_169" depart="68653.50" from="50831917" to="-25504350#0" type='afternoon_car'/>
    <trip id="evening_170" depart="68655.00" from="50831915#1" to="-50831919#0" type='afternoon_car'/>
    <trip id="evening_171" depart="68656.50" from="-53103893#1" to="170083666#2" type='afternoon_car'/>
    <trip id="evening_172" depart="68658.00" from="49830666#6" to="54985260#11" type='afternoon_car'/>
    <trip id="evening_173" depart="68659.50" from="-620932850#0" to="-50449361#2" type='afternoon_car'/>
    <trip id="evening_174" depart="68661.00" from="51095930#0" to="-829563410#0" type='afternoon_car'/>
    <trip id="evening_175" depart="68662.50" from="-25684557#3" to="50831915#2" type='afternoon_car'/>
    <trip id="evening_176" depart="68664.00" from="25684557#5" to="-25684557#0" type='afternoon_car'/>
    <trip id="evening_177" depart="68665.50" from="-51095934#0" to="53103882#0" type='afternoon_car'/>
    <trip id="evening_178" depart="68667.00" from="-53103882#0" to="53103893#1" type='afternoon_car'/>
    <trip id="evening_179" depart="68668.50" from="-64973297#1" to="-326037133#1" type='afternoon_car'/>
    <trip id="evening_180" depart="68670.00" from="25684551#1" to="-51095930#2" type='afternoon_car'/>
    <trip id="evening_181" depart="68671.50" from="829563410#1" to="192981425#0" type='afternoon_car'/>
    <trip id="evening_182" depart="68673.00" from="-25504350#5" to="-53369130#1" type='afternoon_car'/>
    <trip id="evening_183" depart="68674.50" from="-88247764#1" to="-635143862#0" type='afternoon_car'/>
    <trip id="evening_184" depart="68676.00" from="326037133#1" to="620932850#2" type='afternoon_car'/>
    <trip id="evening_185" depart="68677.50" from="580760138#1" to="53369130#1" type='afternoon_car'/>
    <trip id="evening_186" depart="68679.00" from="622102031#5" to="37177801#2" type='afternoon_car'/>
    <trip id="evening_187" depart="68680.50" from="174648253" to="-50831915#7" type='afternoon_car'/>
    <trip id="evening_188" depart="68682.00" from="-54985260#15" to="-54985260#8" type='afternoon_car'/>
    <trip id="evening_189" depart="68683.50" from="620932850#0" to="50449361#6" type='afternoon_car'/>
    <trip id="evening_190" depart="68685.00" from="-1124346622#0" to="192981424#7" type='afternoon_car'/>
    <trip id="evening_191" depart="68686.50" from="-50831918#0" to="-54985260#9" type='afternoon_car'/>
    <trip id="evening_192" depart="68688.00" from="25684551#9" to="-829563410#2" type='afternoon_car'/>
    <trip id="evening_193" depart="68689.50" from="50831916#1" to="1331576371#0" type='afternoon_car'/>
    <trip id="evening_194" depart="68691.00" from="54985260#8" to="-54985279#2" type='afternoon_car'/>
    <trip id="evening_195" depart="68692.50" from="-1331576371#1" to="-50831916#1" type='afternoon_car'/>
    <trip id="evening_196" depart="68694.00" from="-25504350#4" to="54985260#0" type='afternoon_car'/>
    <trip id="evening_197" depart="68695.50" from="-51095934#0" to="-130503625#0" type='afternoon_car'/>
    <trip id="evening_198" depart="68697.00" from="-50449361#6" to="1177906287#0" type='afternoon_car'/>
    <trip id="evening_199" depart="68698.50" from="-51095934#12" to="25684557#2" type='afternoon_car'/>
    <trip id="evening_200" depart="68700.00" from="-170094575#2" to="477271462#5" type='afternoon_car'/>
    <trip id="evening_201" depart="68701.50" from="170094575#2" to="-1124346622#0" type='afternoon_car'/>
    <trip id="evening_202" depart="68703.00" from="-186475564#2" to="-54985260#8" type='afternoon_car'/>
    <trip id="evening_203" depart="68704.50" from="-50831915#1" to="1204274369" type='afternoon_car'/>
    <trip id="evening_204" depart="68706.00" from="25504350#0" to="-50449361#0" type='afternoon_car'/>
    <trip id="evening_205" depart="68707.50" from="49830666#0" to="477271462#0" type='afternoon_car'/>
    <trip id="evening_206" depart="68709.00" from="186475564#2" to="-25684551#0" type='afternoon_car'/>
    <trip id="evening_207" depart="68710.50" from="-51095934#1" to="-88247764#10" type='afternoon_car'/>
    <trip id="evening_208" depart="68712.00" from="-477271462#1" to="50831915#0" type='afternoon_car'/>
    <trip id="evening_209" depart="68713.50" from="88247764#5" to="88247764#4" type='afternoon_car'/>
    <trip id="evening_210" depart="68715.00" from="580760138#2" to="326037134#0" type='afternoon_car'/>
    <trip id="evening_211" depart="68716.50" from="-54985260#11" to="-54985279#5" type='afternoon_car'/>
    <trip id="evening_212" depart="68718.00" from="25504350#0" to="-51095934#3" type='afternoon_car'/>
    <trip id="evening_213" depart="68719.50" from="54985260#6" to="53103893#0" type='afternoon_car'/>
    <trip id="evening_214" depart="68721.00" from="-1331576371#0" to="1395767647#0" type='afternoon_car'/>
    <trip id="evening_215" depart="68722.50" from="-50831918#1" to="50831915#7" type='afternoon_car'/>
    <trip id="evening_216" depart="68724.00" from="-50449361#2" to="-51543398#0" type='afternoon_car'/>
    <trip id="evening_217" depart="68725.50" from="53103882#0" to="-622102031#7" type='afternoon_car'/>
    <trip id="evening_218" depart="68727.00" from="-50831915#0" to="-170094575#3" type='afternoon_car'/>
    <trip id="evening_219" depart="68728.50" from="-622102030#1" to="-183263069#1" type='afternoon_car'/>
    <trip id="evening_220" depart="68730.00" from="49830666#5" to="326037134#1" type='afternoon_car'/>
    <trip id="evening_221" depart="68731.50" from="326037134#1" to="50831917" type='afternoon_car'/>
    <trip id="evening_222" depart="68733.00" from="-51095934#7" to="1395767642" type='afternoon_car'/>
    <trip id="evening_223" depart="68734.50" from="170083666#2" to="-54985260#6" type='afternoon_car'/>
    <trip id="evening_224" depart="68736.00" from="-475735005" to="88247764#5" type='afternoon_car'/>
    <trip id="evening_225" depart="68737.50" from="54985260#11" to="-50449361#1" type='afternoon_car'/>
    <trip id="evening_226" depart="68739.00" from="-50831919#0" to="622102031#6" type='afternoon_car'/>
    <trip id="evening_227" depart="68740.50" from="-54985279#4" to="-25684551#0" type='afternoon_car'/>
    <trip id="evening_228" depart="68742.00" from="25504350#1" to="-50831915#9" type='afternoon_car'/>
    <trip id="evening_229" depart="68743.50" from="-88247764#3" to="-50831915#6" type='afternoon_car'/>
    <trip id="evening_230" depart="68745.00" from="1395767648#0" to="170094575#3" type='afternoon_car'/>
    <trip id="evening_231" depart="68746.50" from="1395767649#0" to="51095934#11" type='afternoon_car'/>
    <trip id="evening_232" depart="68748.00" from="-51095934#1" to="54985260#3" type='afternoon_car'/>
    <trip id="evening_233" depart="68749.50" from="1124346622#0" to="192981424#7" type='afternoon_car'/>
    <trip id="evening_234" depart="68751.00" from="88247764#8" to="-622102031#4" type='afternoon_car'/>
    <trip id="evening_235" depart="68752.50" from="-25684557#1" to="192981424#2" type='afternoon_car'/>
    <trip id="evening_236" depart="68754.00" from="88247764#10" to="50831914#0" type='afternoon_car'/>
    <trip id="evening_237" depart="68755.50" from="-25684551#1" to="51095934#8" type='afternoon_car'/>
    <trip id="evening_238" depart="68757.00" from="25684557#5" to="-174648253" type='afternoon_car'/>
    <trip id="evening_239" depart="68758.50" from="277523407#0" to="-1395767649#0" type='afternoon_car'/>
    <trip id="evening_240" depart="68760.00" from="51095930#1" to="622102031#3" type='afternoon_car'/>
    <trip id="evening_241" depart="68761.50" from="170094575#3" to="-580760138#3" type='afternoon_car'/>
    <trip id="evening_242" depart="68763.00" from="-88247764#1" to="-50449361#6" type='afternoon_car'/>
    <trip id="evening_243" depart="68764.50" from="-1395767648#0" to="-50449361#6" type='afternoon_car'/>
    <trip id="evening_244" depart="68766.00" from="1124346622#0" to="186475564#4" type='afternoon_car'/>
    <trip id="evening_245" depart="68767.50" from="-130503625#0" to="-50831916#1" type='afternoon_car'/>
    <trip id="evening_246" depart="68769.00" from="-54985260#6" to="186475564#3" type='afternoon_car'/>
    <trip id="evening_247" depart="68770.50" from="-88247764#4" to="50831915#4" type='afternoon_car'/>
    <trip id="evening_248" depart="68772.00" from="-25684557#3" to="-54985260#5" type='afternoon_car'/>
    <trip id="evening_249" depart="68773.50" from="49830666#2" to="-170094572#2" type='afternoon_car'/>
    <trip id="evening_250" depart="68775.00" from="-1124346621" to="-25504350#3" type='afternoon_car'/>
    <trip id="evening_251" depart="68776.50" from="192987238#1" to="49830666#4" type='afternoon_car'/>
    <trip id="evening_252" depart="68778.00" from="51095934#4" to="-51095934#4" type='afternoon_car'/>
    <trip id="evening_253" depart="68779.50" from="50831915#2" to="-477271462#3" type='afternoon_car'/>
    <trip id="evening_254" depart="68781.00" from="-477271462#4" to="51095934#8" type='afternoon_car'/>
    <trip id="evening_255" depart="68782.50" from="-622102031#2" to="-88247764#6" type='afternoon_car'/>
    <trip id="evening_256" depart="68784.00" from="51543398#1" to="-50449361#0" type='afternoon_car'/>
    <trip id="evening_257" depart="68785.50" from="-50831915#11" to="829563410#1" type='afternoon_car'/>
    <trip id="evening_258" depart="68787.00" from="-50831914#0" to="-477271462#0" type='afternoon_car'/>
    <trip id="evening_259" depart="68788.50" from="88247764#6" to="-88247764#2" type='afternoon_car'/>
    <trip id="evening_260" depart="68790.00" from="-622102031#2" to="54985260#10" type='afternoon_car'/>
    <trip id="evening_261" depart="68791.50" from="477271462#3" to="829563410#1" type='afternoon_car'/>
    <trip id="evening_262" depart="68793.00" from="622102031#3" to="25684551#1" type='afternoon_car'/>
    <trip id="evening_263" depart="68794.50" from="-186475564#0" to="54985279#3" type='afternoon_car'/>
    <trip id="evening_264" depart="68796.00" from="50449361#4" to="-25684551#3" type='afternoon_car'/>
    <trip id="evening_265" depart="68797.50" from="-170094575#2" to="50449361#2" type='afternoon_car'/>
    <trip id="evening_266" depart="68799.00" from="25684487" to="-477271462#0" type='afternoon_car'/>
    <trip id="evening_267" depart="68800.50" from="-477271462#3" to="622102031#6" type='afternoon_car'/>
    <trip id="evening_268" depart="68802.00" from="88247764#2" to="-1395767648#1" type='afternoon_car'/>
    <trip id="evening_269" depart="68803.50" from="829563410#1" to="277523407#2" type='afternoon_car'/>
    <trip id="evening_270" depart="68805.00" from="580760138#3" to="51095934#10" type='afternoon_car'/>
    <trip id="evening_271" depart="68806.50" from="-51095934#2" to="-620932850#0" type='afternoon_car'/>
    <trip id="evening_272" depart="68808.00" from="-1124346622#0" to="170094575#1" type='afternoon_car'/>
    <trip id="evening_273" depart="68809.50" from="54985260#7" to="53103893#0" type='afternoon_car'/>
    <trip id="evening_274" depart="68811.00" from="1124346621" to="-25684557#4" type='afternoon_car'/>
    <trip id="evening_275" depart="68812.50" from="51095934#0" to="192981424#7" type='afternoon_car'/>
    <trip id="evening_276" depart="68814.00" from="829563410#0" to="1124346622#2" type='afternoon_car'/>
    <trip id="evening_277" depart="68815.50" from="25504350#1" to="25504350#2" type='afternoon_car'/>
    <trip id="evening_278" depart="68817.00" from="620932850#3" to="37177801#3" type='afternoon_car'/>
    <trip id="evening_279" depart="68818.50" from="-53103893#1" to="-51095934#3" type='afternoon_car'/>
    <trip id="evening_280" depart="68820.00" from="-54985260#13" to="51510531#1" type='afternoon_car'/>
    <trip id="evening_281" depart="68821.50" from="170094572#2" to="183263068#1" type='afternoon_car'/>
    <trip id="evening_282" depart="68823.00" from="-186475564#3" to="-51543398#1" type='afternoon_car'/>
    <trip id="evening_283" depart="68824.50" from="-1331576371#1" to="25504350#1" type='afternoon_car'/>