<?xml version="1.0" encoding="UTF-8"?>

<!-- generated on 2026-03-13 00:07:22.173015 by Eclipse SUMO randomTrips.py v1_26_0+0000-fa7df22d7f1
<configuration>
    <net-file value=".\data\networks\city_006.net.xml"/>
    <output-trip-file value=".\data\routes\scenarios_03\evening_peak.rou.xml"/>
    <prefix value="evening_peak_"/>
    <trip-attributes value="type='evening_peak_car'"/>
    <fringe-factor value="30"/>
    <seed value="2026"/>
    <begin value="57600.0"/>
    <end value="68400.0"/>
    <period value="0.9"/>
    <binomial value="5"/>
</configuration>
-->

<routes xmlns:xsi="http://www.w3.org/2001/XMLSchema-instance" xsi:noNamespaceSchemaLocation="http://sumo.dlr.de/xsd/routes_file.xsd">
    <trip id="evening_peak_0" depart="57600.00" from="-53103882#1" to="1395767646" type='evening_peak_car'/>
    <trip id="evening_peak_1" depart="57601.00" from="-170094573" to="192981424#2" type='evening_peak_car'/>
    <trip id="evening_peak_2" depart="57603.00" from="25684557#1" to="1331576371#1" type='evening_peak_car'/>
    <trip id="evening_peak_3" depart="57604.00" from="-186475564#4" to="87080018" type='evening_peak_car'/>
    <trip id="evening_peak_4" depart="57606.00" from="-475735004" to="170094573" type='evening_peak_car'/>
    <trip id="evening_peak_5" depart="57606.00" from="192981424#4" to="1124346622#2" type='evening_peak_car'/>
    <trip id="evening_peak_6" depart="57609.00" from="-53103899" to="50449361#7" type='evening_peak_car'/>
    <trip id="evening_peak_7" depart="57610.00" from="-170094573" to="-25684487" type='evening_peak_car'/>
    <trip id="evening_peak_8" depart="57610.00" from="174648253" to="53103882#1" type='evening_peak_car'/>
    <trip id="evening_peak_9" depart="57610.00" from="1395767649#0" to="1395767642" type='evening_peak_car'/>
    <trip id="evening_peak_10" depart="57611.00" from="170094572#3" to="186475564#4" type='evening_peak_car'/>
    <trip id="evening_peak_11" depart="57611.00" from="170590846" to="50831918#1" type='evening_peak_car'/>
    <trip id="evening_peak_12" depart="57612.00" from="-25486114#1" to="1395767646" type='evening_peak_car'/>
    <trip id="evening_peak_13" depart="57615.00" from="25684551#0" to="-52152425#0" type='evening_peak_car'/>
    <trip id="evening_peak_14" depart="57615.00" from="-25684551#6" to="186475564#1" type='evening_peak_car'/>
    <trip id="evening_peak_15" depart="57615.00" from="-170094573" to="186475564#4" type='evening_peak_car'/>
    <trip id="evening_peak_16" depart="57616.00" from="-1101990231" to="-25486115#0" type='evening_peak_car'/>
    <trip id="evening_peak_17" depart="57617.00" from="-475735004" to="1101990231" type='evening_peak_car'/>
    <trip id="evening_peak_18" depart="57619.00" from="-53103899" to="-622102031#6" type='evening_peak_car'/>
    <trip id="evening_peak_19" depart="57622.00" from="-53103899" to="130503625#1" type='evening_peak_car'/>
    <trip id="evening_peak_20" depart="57623.00" from="-50831917" to="-50449361#0" type='evening_peak_car'/>
    <trip id="evening_peak_21" depart="57623.00" from="-54985260#6" to="51095934#7" type='evening_peak_car'/>
    <trip id="evening_peak_22" depart="57624.00" from="192981424#4" to="53103882#1" type='evening_peak_car'/>
    <trip id="evening_peak_23" depart="57624.00" from="-54985260#16" to="50831918#1" type='evening_peak_car'/>
    <trip id="evening_peak_24" depart="57624.00" from="-25684551#6" to="1101990231" type='evening_peak_car'/>
    <trip id="evening_peak_25" depart="57625.00" from="25684551#0" to="50831918#1" type='evening_peak_car'/>
    <trip id="evening_peak_26" depart="57625.00" from="-635143862#1" to="183263068#1" type='evening_peak_car'/>
    <trip id="evening_peak_27" depart="57626.00" from="192981424#4" to="170094573" type='evening_peak_car'/>
    <trip id="evening_peak_28" depart="57627.00" from="-25504350#7" to="-53369130#0" type='evening_peak_car'/>
    <trip id="evening_peak_29" depart="57628.00" from="-25486114#1" to="626880271#1" type='evening_peak_car'/>
    <trip id="evening_peak_30" depart="57630.00" from="170590846" to="50449361#7" type='evening_peak_car'/>
    <trip id="evening_peak_31" depart="57631.00" from="1463043806" to="1395767646" type='evening_peak_car'/>
    <trip id="evening_peak_32" depart="57632.00" from="-50831918#1" to="53103899" type='evening_peak_car'/>
    <trip id="evening_peak_33" depart="57633.00" from="-130503625#1" to="-1463043806" type='evening_peak_car'/>
    <trip id="evening_peak_34" depart="57634.00" from="170590846" to="183263068#1" type='evening_peak_car'/>
    <trip id="evening_peak_35" depart="57634.00" from="-51510530" to="87080018" type='evening_peak_car'/>
    <trip id="evening_peak_36" depart="57635.00" from="174648253" to="-580760138#0" type='evening_peak_car'/>
    <trip id="evening_peak_37" depart="57635.00" from="25684487" to="-622102030#0" type='evening_peak_car'/>
    <trip id="evening_peak_38" depart="57636.00" from="130503625#1" to="-25486505" type='evening_peak_car'/>
    <trip id="evening_peak_39" depart="57637.00" from="-475735005" to="25504350#7" type='evening_peak_car'/>
    <trip id="evening_peak_40" depart="57638.00" from="-829563410#1" to="1124346622#2" type='evening_peak_car'/>
    <trip id="evening_peak_41" depart="57638.00" from="-133453038" to="1395767649#1" type='evening_peak_car'/>
    <trip id="evening_peak_42" depart="57639.00" from="-1124346622#2" to="-54985260#10" type='evening_peak_car'/>
    <trip id="evening_peak_43" depart="57640.00" from="622102030#0" to="1395767642" type='evening_peak_car'/>
    <trip id="evening_peak_44" depart="57641.00" from="-50449361#4" to="25486114#1" type='evening_peak_car'/>
    <trip id="evening_peak_45" depart="57644.00" from="1463043806" to="-25684551#0" type='evening_peak_car'/>
    <trip id="evening_peak_46" depart="57644.00" from="-50449361#7" to="475735004" type='evening_peak_car'/>
    <trip id="evening_peak_47" depart="57645.00" from="25486115#0" to="88247764#7" type='evening_peak_car'/>
    <trip id="evening_peak_48" depart="57645.00" from="-170094573" to="51510530" type='evening_peak_car'/>
    <trip id="evening_peak_49" depart="57647.00" from="-53103899" to="-174648253" type='evening_peak_car'/>
    <trip id="evening_peak_50" depart="57647.00" from="-25504350#7" to="1395767649#1" type='evening_peak_car'/>
    <trip id="evening_peak_51" depart="57648.00" from="25486115#2" to="-1101990250" type='evening_peak_car'/>
    <trip id="evening_peak_52" depart="57648.00" from="-53103899" to="-25684557#3" type='evening_peak_car'/>
    <trip id="evening_peak_53" depart="57649.00" from="-50449361#7" to="1124346622#2" type='evening_peak_car'/>
    <trip id="evening_peak_54" depart="57650.00" from="-53103899" to="51095934#15" type='evening_peak_car'/>
    <trip id="evening_peak_55" depart="57651.00" from="25684487" to="-174648253" type='evening_peak_car'/>
    <trip id="evening_peak_56" depart="57652.00" from="25486115#0" to="25504350#7" type='evening_peak_car'/>
    <trip id="evening_peak_57" depart="57653.00" from="-25486114#1" to="51095934#15" type='evening_peak_car'/>
    <trip id="evening_peak_58" depart="57654.00" from="1463043806" to="-51543398#0" type='evening_peak_car'/>
    <trip id="evening_peak_59" depart="57654.00" from="-25504350#7" to="133453038" type='evening_peak_car'/>
    <trip id="evening_peak_60" depart="57658.00" from="192981424#4" to="25684551#6" type='evening_peak_car'/>
    <trip id="evening_peak_61" depart="57659.00" from="-475735004" to="-829563410#0" type='evening_peak_car'/>
    <trip id="evening_peak_62" depart="57661.00" from="-622102031#5" to="-52152425#0" type='evening_peak_car'/>
    <trip id="evening_peak_63" depart="57661.00" from="-170094573" to="-25486505" type='evening_peak_car'/>
    <trip id="evening_peak_64" depart="57662.00" from="174648253" to="1395767649#1" type='evening_peak_car'/>
    <trip id="evening_peak_65" depart="57662.00" from="-1204274370" to="-64973297#1" type='evening_peak_car'/>
    <trip id="evening_peak_66" depart="57663.00" from="-51510530" to="192981424#2" type='evening_peak_car'/>
    <trip id="evening_peak_67" depart="57664.00" from="-25684551#6" to="183263068#1" type='evening_peak_car'/>
    <trip id="evening_peak_68" depart="57664.00" from="-25486114#1" to="1204274370" type='evening_peak_car'/>
    <trip id="evening_peak_69" depart="57665.00" from="25486115#0" to="87080018" type='evening_peak_car'/>
    <trip id="evening_peak_70" depart="57665.00" from="-53103882#1" to="-1395767648#1" type='evening_peak_car'/>
    <trip id="evening_peak_71" depart="57666.00" from="-25486114#1" to="51510530" type='evening_peak_car'/>
    <trip id="evening_peak_72" depart="57667.00" from="192981424#4" to="25684551#5" type='evening_peak_car'/>
    <trip id="evening_peak_73" depart="57667.00" from="-53103899" to="1395767647#1" type='evening_peak_car'/>
    <trip id="evening_peak_74" depart="57668.00" from="622102031#4" to="51510531#1" type='evening_peak_car'/>
    <trip id="evening_peak_75" depart="57669.00" from="-186475564#4" to="626880271#1" type='evening_peak_car'/>
    <trip id="evening_peak_76" depart="57671.00" from="1101990250" to="-50831919#0" type='evening_peak_car'/>
    <trip id="evening_peak_77" depart="57671.00" from="-53103899" to="1395767647#1" type='evening_peak_car'/>
    <trip id="evening_peak_78" depart="57672.00" from="25684551#9" to="25504350#7" type='evening_peak_car'/>
    <trip id="evening_peak_79" depart="57673.00" from="170590845" to="-1463043806" type='evening_peak_car'/>
    <trip id="evening_peak_80" depart="57674.00" from="-25486114#1" to="1395767649#1" type='evening_peak_car'/>
    <trip id="evening_peak_81" depart="57674.00" from="-170094573" to="1124346622#2" type='evening_peak_car'/>
    <trip id="evening_peak_82" depart="57675.00" from="-377148615#1" to="377148615#1" type='evening_peak_car'/>
    <trip id="evening_peak_83" depart="57675.00" from="-1101990231" to="-25486115#0" type='evening_peak_car'/>
    <trip id="evening_peak_84" depart="57676.00" from="-1395767648#0" to="51095930#1" type='evening_peak_car'/>
    <trip id="evening_peak_85" depart="57676.00" from="-170094573" to="635143862#1" type='evening_peak_car'/>
    <trip id="evening_peak_86" depart="57677.00" from="51543398#0" to="49830666#3" type='evening_peak_car'/>
    <trip id="evening_peak_87" depart="57678.00" from="-1204274369" to="377148615#1" type='evening_peak_car'/>
    <trip id="evening_peak_88" depart="57678.00" from="-1395767646" to="25504350#4" type='evening_peak_car'/>
    <trip id="evening_peak_89" depart="57679.00" from="54985279#4" to="87080018" type='evening_peak_car'/>
    <trip id="evening_peak_90" depart="57680.00" from="622102030#0" to="25504350#7" type='evening_peak_car'/>
    <trip id="evening_peak_91" depart="57680.00" from="-53103899" to="53103882#1" type='evening_peak_car'/>
    <trip id="evening_peak_92" depart="57681.00" from="25684551#0" to="170094573" type='evening_peak_car'/>
    <trip id="evening_peak_93" depart="57683.00" from="-25486114#1" to="-1463043806" type='evening_peak_car'/>
    <trip id="evening_peak_94" depart="57683.00" from="53369130#0" to="170094575#1" type='evening_peak_car'/>
    <trip id="evening_peak_95" depart="57684.00" from="51543398#0" to="-25684487" type='evening_peak_car'/>
    <trip id="evening_peak_96" depart="57686.00" from="-1204274370" to="1395767649#1" type='evening_peak_car'/>
    <trip id="evening_peak_97" depart="57687.00" from="1101990250" to="-25486505" type='evening_peak_car'/>
    <trip id="evening_peak_98" depart="57688.00" from="54985260#9" to="1177906287#1" type='evening_peak_car'/>
    <trip id="evening_peak_99" depart="57688.00" from="-51510530" to="-25684487" type='evening_peak_car'/>
    <trip id="evening_peak_100" depart="57691.00" from="1101990250" to="1395767647#1" type='evening_peak_car'/>
    <trip id="evening_peak_101" depart="57691.00" from="-50449361#7" to="-51095934#0" type='evening_peak_car'/>
    <trip id="evening_peak_102" depart="57692.00" from="-1395767646" to="1204274369" type='evening_peak_car'/>
    <trip id="evening_peak_103" depart="57694.00" from="-1331576371#1" to="87080018" type='evening_peak_car'/>
    <trip id="evening_peak_104" depart="57696.00" from="-1395767649#1" to="-53369130#0" type='evening_peak_car'/>
    <trip id="evening_peak_105" depart="57696.00" from="-1395767646" to="54985260#16" type='evening_peak_car'/>
    <trip id="evening_peak_106" depart="57697.00" from="580760138#0" to="829563410#2" type='evening_peak_car'/>
    <trip id="evening_peak_107" depart="57697.00" from="-1204274370" to="25504350#7" type='evening_peak_car'/>
    <trip id="evening_peak_108" depart="57698.00" from="1124346622#1" to="-170590845" type='evening_peak_car'/>
    <trip id="evening_peak_109" depart="57698.00" from="-475735004" to="1395767649#1" type='evening_peak_car'/>
    <trip id="evening_peak_110" depart="57699.00" from="-50831915#11" to="-183263069#1" type='evening_peak_car'/>
    <trip id="evening_peak_111" depart="57701.00" from="-183263068#1" to="170094573" type='evening_peak_car'/>
    <trip id="evening_peak_112" depart="57701.00" from="-1204274370" to="1101990231" type='evening_peak_car'/>
    <trip id="evening_peak_113" depart="57701.00" from="54985260#13" to="51510531#1" type='evening_peak_car'/>
    <trip id="evening_peak_114" depart="57702.00" from="-1101990231" to="1177906287#1" type='evening_peak_car'/>
    <trip id="evening_peak_115" depart="57703.00" from="-133453038" to="192981424#2" type='evening_peak_car'/>
    <trip id="evening_peak_116" depart="57704.00" from="1463043806" to="-1101990250" type='evening_peak_car'/>
    <trip id="evening_peak_117" depart="57704.00" from="262767663#0" to="1331576371#1" type='evening_peak_car'/>
    <trip id="evening_peak_118" depart="57705.00" from="-50831915#11" to="-53369130#0" type='evening_peak_car'/>
    <trip id="evening_peak_119" depart="57707.00" from="1101990250" to="-1463043806" type='evening_peak_car'/>
    <trip id="evening_peak_120" depart="57708.00" from="174648253" to="377148615#1" type='evening_peak_car'/>
    <trip id="evening_peak_121" depart="57709.00" from="-1331576371#1" to="1177906287#1" type='evening_peak_car'/>
    <trip id="evening_peak_122" depart="57710.00" from="1395767648#0" to="-50449361#0" type='evening_peak_car'/>
    <trip id="evening_peak_123" depart="57711.00" from="-50831919#1" to="183263068#1" type='evening_peak_car'/>
    <trip id="evening_peak_124" depart="57711.00" from="-25684551#6" to="-1463043806" type='evening_peak_car'/>
    <trip id="evening_peak_125" depart="57712.00" from="-50831919#1" to="1204274370" type='evening_peak_car'/>
    <trip id="evening_peak_126" depart="57713.00" from="-183263068#1" to="-25684551#8" type='evening_peak_car'/>
    <trip id="evening_peak_127" depart="57713.00" from="-1124346622#2" to="-174648253" type='evening_peak_car'/>
    <trip id="evening_peak_128" depart="57713.00" from="-170094573" to="-25486505" type='evening_peak_car'/>
    <trip id="evening_peak_129" depart="57714.00" from="-1204274369" to="1101990231" type='evening_peak_car'/>
    <trip id="evening_peak_130" depart="57714.00" from="1463043806" to="-25486115#0" type='evening_peak_car'/>
    <trip id="evening_peak_131" depart="57715.00" from="25684557#4" to="53103882#1" type='evening_peak_car'/>
    <trip id="evening_peak_132" depart="57715.00" from="-475735004" to="-25684551#0" type='evening_peak_car'/>
    <trip id="evening_peak_133" depart="57716.00" from="88247764#6" to="50831918#1" type='evening_peak_car'/>
    <trip id="evening_peak_134" depart="57716.00" from="170590846" to="1204274370" type='evening_peak_car'/>
    <trip id="evening_peak_135" depart="57716.00" from="-51510531#1" to="50449361#7" type='evening_peak_car'/>
    <trip id="evening_peak_136" depart="57716.00" from="192981424#4" to="1395767647#1" type='evening_peak_car'/>
    <trip id="evening_peak_137" depart="57717.00" from="50449361#0" to="192981424#2" type='evening_peak_car'/>
    <trip id="evening_peak_138" depart="57718.00" from="-50831919#1" to="-1463043806" type='evening_peak_car'/>
    <trip id="evening_peak_139" depart="57718.00" from="53369130#0" to="475735004" type='evening_peak_car'/>
    <trip id="evening_peak_140" depart="57719.00" from="-50449361#7" to="51095934#15" type='evening_peak_car'/>
    <trip id="evening_peak_141" depart="57719.00" from="-170094573" to="-174648253" type='evening_peak_car'/>
    <trip id="evening_peak_142" depart="57719.00" from="1101990250" to="1395767647#1" type='evening_peak_car'/>
    <trip id="evening_peak_143" depart="57721.00" from="-50831919#1" to="-25486505" type='evening_peak_car'/>
    <trip id="evening_peak_144" depart="57721.00" from="622102030#0" to="170094573" type='evening_peak_car'/>
    <trip id="evening_peak_145" depart="57724.00" from="25684487" to="-580760138#0" type='evening_peak_car'/>
    <trip id="evening_peak_146" depart="57724.00" from="170083666#0" to="87080018" type='evening_peak_car'/>
    <trip id="evening_peak_147" depart="57725.00" from="-50831915#8" to="-170590845" type='evening_peak_car'/>
    <trip id="evening_peak_148" depart="57725.00" from="-326037134#0" to="50831915#11" type='evening_peak_car'/>
    <trip id="evening_peak_149" depart="57726.00" from="-1331576371#1" to="1395767642" type='evening_peak_car'/>
    <trip id="evening_peak_150" depart="57728.00" from="-50831915#11" to="-174648253" type='evening_peak_car'/>
    <trip id="evening_peak_151" depart="57728.00" from="-475735004" to="-25486115#0" type='evening_peak_car'/>
    <trip id="evening_peak_152" depart="57728.00" from="-54985260#4" to="37177801#3" type='evening_peak_car'/>
    <trip id="evening_peak_153" depart="57729.00" from="-51095934#6" to="53103893#0" type='evening_peak_car'/>
    <trip id="evening_peak_154" depart="57729.00" from="-133453038" to="635143862#1" type='evening_peak_car'/>
    <trip id="evening_peak_155" depart="57731.00" from="-25684551#9" to="-580760138#0" type='evening_peak_car'/>
    <trip id="evening_peak_156" depart="57731.00" from="622102030#0" to="-50449361#0" type='evening_peak_car'/>
    <trip id="evening_peak_157" depart="57732.00" from="170083666#0" to="53103882#0" type='evening_peak_car'/>
    <trip id="evening_peak_158" depart="57733.00" from="53369130#2" to="170094573" type='evening_peak_car'/>
    <trip id="evening_peak_159" depart="57736.00" from="-88247764#7" to="1395767642" type='evening_peak_car'/>
    <trip id="evening_peak_160" depart="57736.00" from="622102030#3" to="133453038" type='evening_peak_car'/>
    <trip id="evening_peak_161" depart="57737.00" from="25486115#0" to="1395767647#1" type='evening_peak_car'/>
    <trip id="evening_peak_162" depart="57738.00" from="-50831914#0" to="1124346622#2" type='evening_peak_car'/>
    <trip id="evening_peak_163" depart="57738.00" from="-54985260#4" to="186475564#4" type='evening_peak_car'/>
    <trip id="evening_peak_164" depart="57739.00" from="-1395767649#1" to="-53369130#0" type='evening_peak_car'/>
    <trip id="evening_peak_165" depart="57740.00" from="-1395767647#1" to="475735004" type='evening_peak_car'/>
    <trip id="evening_peak_166" depart="57741.00" from="-25486114#1" to="635143862#1" type='evening_peak_car'/>
    <trip id="evening_peak_167" depart="57744.00" from="-1177906287#1" to="51095934#15" type='evening_peak_car'/>
    <trip id="evening_peak_168" depart="57745.00" from="170590846" to="-25486505" type='evening_peak_car'/>
    <trip id="evening_peak_169" depart="57747.00" from="50449361#2" to="-52152425#0" type='evening_peak_car'/>
    <trip id="evening_peak_170" depart="57748.00" from="580760138#0" to="192981425#0" type='evening_peak_car'/>
    <trip id="evening_peak_171" depart="57749.00" from="-622102031#5" to="-170590846" type='evening_peak_car'/>
    <trip id="evening_peak_172" depart="57750.00" from="-25684551#6" to="-25684487" type='evening_peak_car'/>
    <trip id="evening_peak_173" depart="57751.00" from="-51095934#3" to="-50449361#0" type='evening_peak_car'/>
    <trip id="evening_peak_174" depart="57751.00" from="-50831919#1" to="377148615#1" type='evening_peak_car'/>
    <trip id="evening_peak_175" depart="57753.00" from="-1101990231" to="-1463043806" type='evening_peak_car'/>
    <trip id="evening_peak_176" depart="57753.00" from="-25684551#6" to="25486114#1" type='evening_peak_car'/>
    <trip id="evening_peak_177" depart="57754.00" from="-1101990231" to="-25684551#8" type='evening_peak_car'/>
    <trip id="evening_peak_178" depart="57756.00" from="-51095934#15" to="-174648253" type='evening_peak_car'/>
    <trip id="evening_peak_179" depart="57756.00" from="88247764#6" to="1204274370" type='evening_peak_car'/>
    <trip id="evening_peak_180" depart="57757.00" from="174648253" to="50831916#0" type='evening_peak_car'/>
    <trip id="evening_peak_181" depart="57758.00" from="-475735004" to="1395767646" type='evening_peak_car'/>
    <trip id="evening_peak_182" depart="57759.00" from="49830666#5" to="-170590846" type='evening_peak_car'/>
    <trip id="evening_peak_183" depart="57759.00" from="-53103882#1" to="51095934#8" type='evening_peak_car'/>
    <trip id="evening_peak_184" depart="57761.00" from="-50831919#1" to="1124346622#2" type='evening_peak_car'/>
    <trip id="evening_peak_185" depart="57761.00" from="-50831915#4" to="635143862#1" type='evening_peak_car'/>
    <trip id="evening_peak_186" depart="57761.00" from="-53103882#1" to="50831918#1" type='evening_peak_car'/>
    <trip id="evening_peak_187" depart="57761.00" from="-54985279#4" to="-186475564#2" type='evening_peak_car'/>
    <trip id="evening_peak_188" depart="57765.00" from="-25486114#1" to="50831919#1" type='evening_peak_car'/>
    <trip id="evening_peak_189" depart="57766.00" from="-1124346622#2" to="25684551#2" type='evening_peak_car'/>
    <trip id="evening_peak_190" depart="57766.00" from="25486115#0" to="377148615#1" type='evening_peak_car'/>
    <trip id="evening_peak_191" depart="57767.00" from="192981424#4" to="-25684551#0" type='evening_peak_car'/>
    <trip id="evening_peak_192" depart="57768.00" from="25486115#2" to="-25684487" type='evening_peak_car'/>
    <trip id="evening_peak_193" depart="57769.00" from="-170094573" to="1395767642" type='evening_peak_car'/>
    <trip id="evening_peak_194" depart="57770.00" from="622102030#2" to="186475564#4" type='evening_peak_car'/>
    <trip id="evening_peak_195" depart="57772.00" from="-133453038" to="-25486505" type='evening_peak_car'/>
    <trip id="evening_peak_196" depart="57773.00" from="-1331576371#1" to="-51543398#0" type='evening_peak_car'/>
    <trip id="evening_peak_197" depart="57773.00" from="-53103899" to="-25486115#0" type='evening_peak_car'/>
    <trip id="evening_peak_198" depart="57775.00" from="-1204274370" to="1395767648#0" type='evening_peak_car'/>
    <trip id="evening_peak_199" depart="57775.00" from="-1177906287#1" to="-25684551#8" type='evening_peak_car'/>
    <trip id="evening_peak_200" depart="57776.00" from="-50831918#1" to="50831915#1" type='evening_peak_car'/>
    <trip id="evening_peak_201" depart="57779.00" from="50831914#1" to="50449361#7" type='evening_peak_car'/>
    <trip id="evening_peak_202" depart="57781.00" from="25486114#0" to="87080018" type='evening_peak_car'/>
    <trip id="evening_peak_203" depart="57781.00" from="-1395767649#1" to="53103882#1" type='evening_peak_car'/>
    <trip id="evening_peak_204" depart="57783.00" from="192981424#4" to="53103882#1" type='evening_peak_car'/>
    <trip id="evening_peak_205" depart="57783.00" from="-475735004" to="1124346622#2" type='evening_peak_car'/>
    <trip id="evening_peak_206" depart="57783.00" from="-50831915#11" to="-170094575#3" type='evening_peak_car'/>
    <trip id="evening_peak_207" depart="57784.00" from="-475735004" to="-25684551#0" type='evening_peak_car'/>
    <trip id="evening_peak_208" depart="57786.00" from="-50449361#7" to="377148615#1" type='evening_peak_car'/>
    <trip id="evening_peak_209" depart="57786.00" from="-54985260#16" to="-25684487" type='evening_peak_car'/>
    <trip id="evening_peak_210" depart="57787.00" from="-170094573" to="1395767646" type='evening_peak_car'/>
    <trip id="evening_peak_211" depart="57787.00" from="-170094575#3" to="50831918#1" type='evening_peak_car'/>
    <trip id="evening_peak_212" depart="57788.00" from="-1395767646" to="-51095930#1" type='evening_peak_car'/>
    <trip id="evening_peak_213" depart="57789.00" from="-25684551#6" to="-25684551#8" type='evening_peak_car'/>
    <trip id="evening_peak_214" depart="57790.00" from="183263068#0" to="192981424#2" type='evening_peak_car'/>
    <trip id="evening_peak_215" depart="57792.00" from="262767663#0" to="54985260#16" type='evening_peak_car'/>
    <trip id="evening_peak_216" depart="57793.00" from="-1395767649#1" to="133453038" type='evening_peak_car'/>
    <trip id="evening_peak_217" depart="57794.00" from="1463043806" to="54985260#16" type='evening_peak_car'/>
    <trip id="evening_peak_218" depart="57794.00" from="-183263069#1" to="-25684557#1" type='evening_peak_car'/>
    <trip id="evening_peak_219" depart="57797.00" from="-475735004" to="1395767646" type='evening_peak_car'/>
    <trip id="evening_peak_220" depart="57799.00" from="-635143862#1" to="-25684551#8" type='evening_peak_car'/>
    <trip id="evening_peak_221" depart="57800.00" from="-1395767647#1" to="183263068#1" type='evening_peak_car'/>
    <trip id="evening_peak_222" depart="57801.00" from="-1124346622#2" to="183263068#1" type='evening_peak_car'/>
    <trip id="evening_peak_223" depart="57801.00" from="1124346622#1" to="-53369130#0" type='evening_peak_car'/>
    <trip id="evening_peak_224" depart="57802.00" from="-53103882#1" to="-25684551#0" type='evening_peak_car'/>
    <trip id="evening_peak_225" depart="57802.00" from="-51510530" to="1331576371#1" type='evening_peak_car'/>
    <trip id="evening_peak_226" depart="57803.00" from="-1395767649#1" to="1204274370" type='evening_peak_car'/>
    <trip id="evening_peak_227" depart="57805.00" from="-1204274370" to="1177906287#1" type='evening_peak_car'/>
    <trip id="evening_peak_228" depart="57805.00" from="-475735004" to="-25684551#8" type='evening_peak_car'/>
    <trip id="evening_peak_229" depart="57806.00" from="25684487" to="-25684551#8" type='evening_peak_car'/>
    <trip id="evening_peak_230" depart="57806.00" from="-50831915#11" to="-622102030#0" type='evening_peak_car'/>
    <trip id="evening_peak_231" depart="57806.00" from="-1331576371#0" to="37177801#3" type='evening_peak_car'/>
    <trip id="evening_peak_232" depart="57807.00" from="50449361#0" to="-174648253" type='evening_peak_car'/>
    <trip id="evening_peak_233" depart="57807.00" from="1463043806" to="377148615#1" type='evening_peak_car'/>
    <trip id="evening_peak_234" depart="57807.00" from="25684551#8" to="-170590846" type='evening_peak_car'/>
    <trip id="evening_peak_235" depart="57809.00" from="-1331576371#1" to="1124346622#1" type='evening_peak_car'/>
    <trip id="evening_peak_236" depart="57809.00" from="-1204274369" to="25684551#6" type='evening_peak_car'/>
    <trip id="evening_peak_237" depart="57810.00" from="-25684551#2" to="-51095934#3" type='evening_peak_car'/>
    <trip id="evening_peak_238" depart="57812.00" from="-50831915#11" to="183263068#0" type='evening_peak_car'/>
    <trip id="evening_peak_239" depart="57812.00" from="-51510530" to="-53369130#0" type='evening_peak_car'/>
    <trip id="evening_peak_240" depart="57812.00" from="-53103899" to="635143862#1" type='evening_peak_car'/>
    <trip id="evening_peak_241" depart="57812.00" from="-53103882#1" to="1124346622#2" type='evening_peak_car'/>
    <trip id="evening_peak_242" depart="57813.00" from="170083666#0" to="25504350#7" type='evening_peak_car'/>
    <trip id="evening_peak_243" depart="57813.00" from="-25684551#6" to="-50831915#2" type='evening_peak_car'/>
    <trip id="evening_peak_244" depart="57814.00" from="1101990250" to="54985260#16" type='evening_peak_car'/>
    <trip id="evening_peak_245" depart="57814.00" from="-1124346622#2" to="-53369130#0" type='evening_peak_car'/>
    <trip id="evening_peak_246" depart="57814.00" from="-50831919#1" to="-170590846" type='evening_peak_car'/>
    <trip id="evening_peak_247" depart="57816.00" from="-53103882#1" to="635143862#1" type='evening_peak_car'/>
    <trip id="evening_peak_248" depart="57817.00" from="622102030#0" to="51095934#15" type='evening_peak_car'/>
    <trip id="evening_peak_249" depart="57817.00" from="-51510531#1" to="1395767647#1" type='evening_peak_car'/>
    <trip id="evening_peak_250" depart="57819.00" from="-50449361#7" to="635143862#1" type='evening_peak_car'/>
    <trip id="evening_peak_251" depart="57819.00" from="51543398#0" to="-53369130#0" type='evening_peak_car'/>
    <trip id="evening_peak_252" depart="57820.00" from="-51095934#3" to="1395767647#1" type='evening_peak_car'/>
    <trip id="evening_peak_253" depart="57821.00" from="-1204274369" to="-174648253" type='evening_peak_car'/>
    <trip id="evening_peak_254" depart="57821.00" from="-1395767642" to="-170590845" type='evening_peak_car'/>
    <trip id="evening_peak_255" depart="57823.00" from="-54985260#16" to="1395767642" type='evening_peak_car'/>
    <trip id="evening_peak_256" depart="57823.00" from="-1331576371#1" to="622102030#3" type='evening_peak_car'/>
    <trip id="evening_peak_257" depart="57823.00" from="1101990250" to="49830666#4" type='evening_peak_car'/>
    <trip id="evening_peak_258" depart="57824.00" from="-51095934#15" to="626880271#1" type='evening_peak_car'/>
    <trip id="evening_peak_259" depart="57826.00" from="622102030#0" to="-50449361#0" type='evening_peak_car'/>
    <trip id="evening_peak_260" depart="57826.00" from="-1395767646" to="1331576371#1" type='evening_peak_car'/>
    <trip id="evening_peak_261" depart="57828.00" from="-170094573" to="-170094572#3" type='evening_peak_car'/>
    <trip id="evening_peak_262" depart="57828.00" from="-64973297#0" to="53103882#1" type='evening_peak_car'/>
    <trip id="evening_peak_263" depart="57828.00" from="-25504350#7" to="192981424#5" type='evening_peak_car'/>