<?xml version="1.0" encoding="UTF-8"?>

<!-- generated on 2026-03-12 22:49:41.018935 by Eclipse SUMO randomTrips.py v1_26_0+0000-fa7df22d7f1
<configuration>
    <net-file value=".\data\networks\city_006.net.xml"/>
    <output-trip-file value=".\data\routes\scenarios_03\late_morning.rou.xml"/>
    <prefix value="late_morning_"/>
    <trip-attributes value="type='dawn_car'"/>
    <seed value="2026"/>
    <begin value="32400.0"/>
    <end value="43200.0"/>
    <period value="1.5"/>
</configuration>
-->

<routes xmlns:xsi="http://www.w3.org/2001/XMLSchema-instance" xsi:noNamespaceSchemaLocation="http://sumo.dlr.de/xsd/routes_file.xsd">
    <trip id="late_morning_0" depart="32400.00" from="1395767649#0" to="54985260#12" type='dawn_car'/>
    <trip id="late_morning_1" depart="32401.50" from="-25486114#0" to="-50831917" type='dawn_car'/>
    <trip id="late_morning_2" depart="32403.00" from="25486115#1" to="192981424#6" type='dawn_car'/>
    <trip id="late_morning_3" depart="32404.50" from="50831918#0" to="192981424#0" type='dawn_car'/>
    <trip id="late_morning_4" depart="32406.00" from="50449361#1" to="50831918#0" type='dawn_car'/>
    <trip id="late_morning_5" depart="32407.50" from="50831915#0" to="25486115#2" type='dawn_car'/>
    <trip id="late_morning_6" depart="32409.00" from="-50831915#8" to="25684551#3" type='dawn_car'/>
    <trip id="late_morning_7" depart="32410.50" from="-25504350#0" to="51095934#8" type='dawn_car'/>
    <trip id="late_morning_8" depart="32412.00" from="-829563410#2" to="51095934#7" type='dawn_car'/>
    <trip id="late_morning_9" depart="32413.50" from="-50449361#7" to="-51095934#2" type='dawn_car'/>
    <trip id="late_morning_10" depart="32415.00" from="88247764#10" to="622102030#2" type='dawn_car'/>
    <trip id="late_morning_11" depart="32416.50" from="1395767649#0" to="-25486114#0" type='dawn_car'/>
    <trip id="late_morning_12" depart="32418.00" from="-54985260#10" to="192981424#6" type='dawn_car'/>
    <trip id="late_morning_13" depart="32419.50" from="-51095934#4" to="1177906287#0" type='dawn_car'/>
    <trip id="late_morning_14" depart="32421.00" from="54985260#3" to="49830666#4" type='dawn_car'/>
    <trip id="late_morning_15" depart="32422.50" from="49830666#0" to="-580760138#6" type='dawn_car'/>
    <trip id="late_morning_16" depart="32424.00" from="-622102031#2" to="-622102031#7" type='dawn_car'/>
    <trip id="late_morning_17" depart="32425.50" from="192987238#1" to="1395767649#0" type='dawn_car'/>
    <trip id="late_morning_18" depart="32427.00" from="-25504350#2" to="170083666#2" type='dawn_car'/>
    <trip id="late_morning_19" depart="32428.50" from="50831915#0" to="25504350#5" type='dawn_car'/>
    <trip id="late_morning_20" depart="32430.00" from="1124346622#1" to="580760138#6" type='dawn_car'/>
    <trip id="late_morning_21" depart="32431.50" from="-50831919#1" to="-88247764#10" type='dawn_car'/>
    <trip id="late_morning_22" depart="32433.00" from="620932850#1" to="1331576371#1" type='dawn_car'/>
    <trip id="late_morning_23" depart="32434.50" from="-50831915#11" to="-25684557#0" type='dawn_car'/>
    <trip id="late_morning_24" depart="32436.00" from="-1395767647#0" to="49830666#4" type='dawn_car'/>
    <trip id="late_morning_25" depart="32437.50" from="25684487" to="130503625#0" type='dawn_car'/>
    <trip id="late_morning_26" depart="32439.00" from="1075767203#1" to="-51095930#0" type='dawn_car'/>
    <trip id="late_morning_27" depart="32440.50" from="54985260#7" to="25684557#0" type='dawn_car'/>
    <trip id="late_morning_28" depart="32442.00" from="-88247764#1" to="130503625#0" type='dawn_car'/>
    <trip id="late_morning_29" depart="32443.50" from="620932850#3" to="88247764#4" type='dawn_car'/>
    <trip id="late_morning_30" depart="32445.00" from="170590846" to="192981424#7" type='dawn_car'/>
    <trip id="late_morning_31" depart="32446.50" from="277523407#1" to="-54985260#12" type='dawn_car'/>
    <trip id="late_morning_32" depart="32448.00" from="-88247764#9" to="54985260#7" type='dawn_car'/>
    <trip id="late_morning_33" depart="32449.50" from="-622102031#6" to="-53369130#1" type='dawn_car'/>
    <trip id="late_morning_34" depart="32451.00" from="-51095934#0" to="-1395767649#0" type='dawn_car'/>
    <trip id="late_morning_35" depart="32452.50" from="25684557#4" to="25504350#4" type='dawn_car'/>
    <trip id="late_morning_36" depart="32454.00" from="-88247764#1" to="170094575#1" type='dawn_car'/>
    <trip id="late_morning_37" depart="32455.50" from="1124346622#0" to="620932850#1" type='dawn_car'/>
    <trip id="late_morning_38" depart="32457.00" from="1395767648#1" to="51510531#1" type='dawn_car'/>
    <trip id="late_morning_39" depart="32458.50" from="580760138#0" to="52152425#1" type='dawn_car'/>
    <trip id="late_morning_40" depart="32460.00" from="-186475564#3" to="477271462#4" type='dawn_car'/>
    <trip id="late_morning_41" depart="32461.50" from="64973297#1" to="53103893#1" type='dawn_car'/>
    <trip id="late_morning_42" depart="32463.00" from="-88247764#9" to="-183263068#0" type='dawn_car'/>
    <trip id="late_morning_43" depart="32464.50" from="-51095930#2" to="1395767649#0" type='dawn_car'/>
    <trip id="late_morning_44" depart="32466.00" from="-186475564#2" to="50831915#4" type='dawn_car'/>
    <trip id="late_morning_45" depart="32467.50" from="-622102030#1" to="1124346622#0" type='dawn_car'/>
    <trip id="late_morning_46" depart="32469.00" from="-1124346622#2" to="-1075767203#0" type='dawn_car'/>
    <trip id="late_morning_47" depart="32470.50" from="192981425#1" to="622102030#3" type='dawn_car'/>
    <trip id="late_morning_48" depart="32472.00" from="-183263068#0" to="51095934#12" type='dawn_car'/>
    <trip id="late_morning_49" depart="32473.50" from="-50831916#1" to="25684551#6" type='dawn_car'/>
    <trip id="late_morning_50" depart="32475.00" from="50831915#1" to="635143862#0" type='dawn_car'/>
    <trip id="late_morning_51" depart="32476.50" from="277523407#1" to="25684557#4" type='dawn_car'/>
    <trip id="late_morning_52" depart="32478.00" from="192987238#0" to="50831918#0" type='dawn_car'/>
    <trip id="late_morning_53" depart="32479.50" from="622102031#4" to="1395767647#1" type='dawn_car'/>
    <trip id="late_morning_54" depart="32481.00" from="49830666#4" to="-25684557#3" type='dawn_car'/>
    <trip id="late_morning_55" depart="32482.50" from="-50831915#10" to="25504350#0" type='dawn_car'/>
    <trip id="late_morning_56" depart="32484.00" from="622102031#7" to="54985260#4" type='dawn_car'/>
    <trip id="late_morning_57" depart="32485.50" from="277523407#1" to="622102031#0" type='dawn_car'/>
    <trip id="late_morning_58" depart="32487.00" from="50831919#0" to="580760138#6" type='dawn_car'/>
    <trip id="late_morning_59" depart="32488.50" from="-51510530" to="-829563410#1" type='dawn_car'/>
    <trip id="late_morning_60" depart="32490.00" from="-25486115#1" to="54985260#9" type='dawn_car'/>
    <trip id="late_morning_61" depart="32491.50" from="-1395767647#1" to="-54985279#5" type='dawn_car'/>
    <trip id="late_morning_62" depart="32493.00" from="-54985260#16" to="50831918#0" type='dawn_car'/>
    <trip id="late_morning_63" depart="32494.50" from="-53103899" to="-54985260#10" type='dawn_car'/>
    <trip id="late_morning_64" depart="32496.00" from="170083666#1" to="-88247764#7" type='dawn_car'/>
    <trip id="late_morning_65" depart="32497.50" from="-54985260#1" to="25504350#4" type='dawn_car'/>
    <trip id="late_morning_66" depart="32499.00" from="326037133#1" to="-186475564#1" type='dawn_car'/>
    <trip id="late_morning_67" depart="32500.50" from="-580760138#6" to="-50831915#1" type='dawn_car'/>
    <trip id="late_morning_68" depart="32502.00" from="580760138#6" to="-170094572#4" type='dawn_car'/>
    <trip id="late_morning_69" depart="32503.50" from="170590846" to="53103893#0" type='dawn_car'/>
    <trip id="late_morning_70" depart="32505.00" from="-477271462#2" to="49830666#7" type='dawn_car'/>
    <trip id="late_morning_71" depart="32506.50" from="54985260#3" to="-25684557#1" type='dawn_car'/>
    <trip id="late_morning_72" depart="32508.00" from="170094572#3" to="51095934#0" type='dawn_car'/>
    <trip id="late_morning_73" depart="32509.50" from="170083666#0" to="635143862#0" type='dawn_car'/>
    <trip id="late_morning_74" depart="32511.00" from="-25684557#5" to="53103899" type='dawn_car'/>
    <trip id="late_morning_75" depart="32512.50" from="-622102030#2" to="-25486115#0" type='dawn_car'/>
    <trip id="late_morning_76" depart="32514.00" from="-51510530" to="-54985279#4" type='dawn_car'/>
    <trip id="late_morning_77" depart="32515.50" from="-51095930#1" to="1395767648#1" type='dawn_car'/>
    <trip id="late_morning_78" depart="32517.00" from="50831917" to="-88247764#0" type='dawn_car'/>
    <trip id="late_morning_79" depart="32518.50" from="-88247764#4" to="-54985260#6" type='dawn_car'/>
    <trip id="late_morning_80" depart="32520.00" from="51095934#1" to="51095934#13" type='dawn_car'/>
    <trip id="late_morning_81" depart="32521.50" from="51095934#5" to="53369130#1" type='dawn_car'/>
    <trip id="late_morning_82" depart="32523.00" from="-50831915#4" to="626880271#0" type='dawn_car'/>
    <trip id="late_morning_83" depart="32524.50" from="54985260#4" to="277523407#1" type='dawn_car'/>
    <trip id="late_morning_84" depart="32526.00" from="-620932850#3" to="51095930#2" type='dawn_car'/>
    <trip id="late_morning_85" depart="32527.50" from="53369130#0" to="37177801#3" type='dawn_car'/>
    <trip id="late_morning_86" depart="32529.00" from="635143862#0" to="-580760138#1" type='dawn_car'/>
    <trip id="late_morning_87" depart="32530.50" from="-25684557#4" to="192981425#0" type='dawn_car'/>
    <trip id="late_morning_88" depart="32532.00" from="-25486115#2" to="50449361#2" type='dawn_car'/>
    <trip id="late_morning_89" depart="32533.50" from="-50831914#1" to="-53369130#1" type='dawn_car'/>
    <trip id="late_morning_90" depart="32535.00" from="-51095934#0" to="192981424#6" type='dawn_car'/>
    <trip id="late_morning_91" depart="32536.50" from="622102031#6" to="-50449361#0" type='dawn_car'/>
    <trip id="late_morning_92" depart="32538.00" from="49830666#5" to="-50449361#6" type='dawn_car'/>
    <trip id="late_morning_93" depart="32539.50" from="25684551#10" to="170083666#2" type='dawn_car'/>
    <trip id="late_morning_94" depart="32541.00" from="-51095934#12" to="53103882#1" type='dawn_car'/>
    <trip id="late_morning_95" depart="32542.50" from="-51095930#0" to="-183263068#0" type='dawn_car'/>
    <trip id="late_morning_96" depart="32544.00" from="-622102030#1" to="54985279#3" type='dawn_car'/>
    <trip id="late_morning_97" depart="32545.50" from="50831916#1" to="-829563410#2" type='dawn_car'/>
    <trip id="late_morning_98" depart="32547.00" from="-1124346622#2" to="-25504350#3" type='dawn_car'/>
    <trip id="late_morning_99" depart="32548.50" from="622102030#2" to="-580760138#1" type='dawn_car'/>
    <trip id="late_morning_100" depart="32550.00" from="50831917" to="25684551#1" type='dawn_car'/>
    <trip id="late_morning_101" depart="32551.50" from="25684557#4" to="25684551#3" type='dawn_car'/>
    <trip id="late_morning_102" depart="32553.00" from="620932850#1" to="-54985260#2" type='dawn_car'/>
    <trip id="late_morning_103" depart="32554.50" from="88247764#1" to="54985260#5" type='dawn_car'/>
    <trip id="late_morning_104" depart="32556.00" from="326037134#0" to="620932850#2" type='dawn_car'/>
    <trip id="late_morning_105" depart="32557.50" from="-54985260#2" to="50831915#1" type='dawn_car'/>
    <trip id="late_morning_106" depart="32559.00" from="622102031#7" to="51095934#15" type='dawn_car'/>
    <trip id="late_morning_107" depart="32560.50" from="-25504350#5" to="50831918#0" type='dawn_car'/>
    <trip id="late_morning_108" depart="32562.00" from="-53103882#0" to="54985279#5" type='dawn_car'/>
    <trip id="late_morning_109" depart="32563.50" from="170590845" to="-54985279#3" type='dawn_car'/>
    <trip id="late_morning_110" depart="32565.00" from="-25504350#0" to="25684551#5" type='dawn_car'/>
    <trip id="late_morning_111" depart="32566.50" from="-25504350#3" to="-25684551#9" type='dawn_car'/>
    <trip id="late_morning_112" depart="32568.00" from="-54985260#16" to="277523407#2" type='dawn_car'/>
    <trip id="late_morning_113" depart="32569.50" from="25684557#4" to="-1395767648#0" type='dawn_car'/>
    <trip id="late_morning_114" depart="32571.00" from="192981425#0" to="-580760138#3" type='dawn_car'/>
    <trip id="late_morning_115" depart="32572.50" from="-54985279#4" to="-51095934#1" type='dawn_car'/>
    <trip id="late_morning_116" depart="32574.00" from="-622102031#1" to="-50831916#1" type='dawn_car'/>
    <trip id="late_morning_117" depart="32575.50" from="-25504350#6" to="186475564#3" type='dawn_car'/>
    <trip id="late_morning_118" depart="32577.00" from="262767663#1" to="622102031#0" type='dawn_car'/>
    <trip id="late_morning_119" depart="32578.50" from="326037134#1" to="-622102031#6" type='dawn_car'/>
    <trip id="late_morning_120" depart="32580.00" from="-50831918#1" to="-326037134#0" type='dawn_car'/>
    <trip id="late_morning_121" depart="32581.50" from="-1204274369" to="-52152425#0" type='dawn_car'/>
    <trip id="late_morning_122" depart="32583.00" from="192987238#4" to="53103893#0" type='dawn_car'/>
    <trip id="late_morning_123" depart="32584.50" from="183263069#1" to="309448838" type='dawn_car'/>
    <trip id="late_morning_124" depart="32586.00" from="-51095930#2" to="25684557#3" type='dawn_car'/>
    <trip id="late_morning_125" depart="32587.50" from="50831915#10" to="-54985260#2" type='dawn_car'/>
    <trip id="late_morning_126" depart="32589.00" from="25684557#5" to="-1124346622#0" type='dawn_car'/>
    <trip id="late_morning_127" depart="32590.50" from="88247764#1" to="130503625#1" type='dawn_car'/>
    <trip id="late_morning_128" depart="32592.00" from="829563410#1" to="475735005" type='dawn_car'/>
    <trip id="late_morning_129" depart="32593.50" from="54985260#11" to="622102030#1" type='dawn_car'/>
    <trip id="late_morning_130" depart="32595.00" from="580760138#0" to="-622102031#7" type='dawn_car'/>
    <trip id="late_morning_131" depart="32596.50" from="88247764#0" to="622102031#7" type='dawn_car'/>
    <trip id="late_morning_132" depart="32598.00" from="-54985260#12" to="-50831915#3" type='dawn_car'/>
    <trip id="late_morning_133" depart="32599.50" from="-54985260#3" to="25684557#5" type='dawn_car'/>
    <trip id="late_morning_134" depart="32601.00" from="183263068#0" to="130503625#2" type='dawn_car'/>
    <trip id="late_morning_135" depart="32602.50" from="51095930#1" to="25486114#0" type='dawn_car'/>
    <trip id="late_morning_136" depart="32604.00" from="-477271462#2" to="25684557#1" type='dawn_car'/>
    <trip id="late_morning_137" depart="32605.50" from="-25684557#2" to="54985279#1" type='dawn_car'/>
    <trip id="late_morning_138" depart="32607.00" from="622102031#4" to="51095934#7" type='dawn_car'/>
    <trip id="late_morning_139" depart="32608.50" from="-183263068#0" to="-620932850#3" type='dawn_car'/>
    <trip id="late_morning_140" depart="32610.00" from="50449361#1" to="-25684557#4" type='dawn_car'/>
    <trip id="late_morning_141" depart="32611.50" from="50449361#4" to="88247764#9" type='dawn_car'/>
    <trip id="late_morning_142" depart="32613.00" from="-1177906287#0" to="-50831916#0" type='dawn_car'/>
    <trip id="late_morning_143" depart="32614.50" from="53369130#0" to="25486114#1" type='dawn_car'/>
    <trip id="late_morning_144" depart="32616.00" from="-54985279#3" to="64973297#1" type='dawn_car'/>
    <trip id="late_morning_145" depart="32617.50" from="170083666#0" to="277523407#0" type='dawn_car'/>
    <trip id="late_morning_146" depart="32619.00" from="-183263068#1" to="50831914#1" type='dawn_car'/>
    <trip id="late_morning_147" depart="32620.50" from="-53369130#2" to="-51095934#6" type='dawn_car'/>
    <trip id="late_morning_148" depart="32622.00" from="-1395767642" to="25504350#2" type='dawn_car'/>
    <trip id="late_morning_149" depart="32623.50" from="51095930#0" to="-477271462#2" type='dawn_car'/>
    <trip id="late_morning_150" depart="32625.00" from="-51095934#5" to="186475564#2" type='dawn_car'/>
    <trip id="late_morning_151" depart="32626.50" from="-54985260#3" to="87080018" type='dawn_car'/>
    <trip id="late_morning_152" depart="32628.00" from="-477271462#2" to="50831915#4" type='dawn_car'/>
    <trip id="late_morning_153" depart="32629.50" from="-1124346622#0" to="25504350#7" type='dawn_car'/>
    <trip id="late_morning_154" depart="32631.00" from="1075767203#0" to="-88247764#2" type='dawn_car'/>
    <trip id="late_morning_155" depart="32632.50" from="51095934#3" to="54985279#5" type='dawn_car'/>
    <trip id="late_morning_156" depart="32634.00" from="88247764#1" to="88247764#8" type='dawn_car'/>
    <trip id="late_morning_157" depart="32635.50" from="-326037134#1" to="170094573" type='dawn_car'/>
    <trip id="late_morning_158" depart="32637.00" from="-475735004" to="186475564#1" type='dawn_car'/>
    <trip id="late_morning_159" depart="32638.50" from="-326037133#0" to="54985260#9" type='dawn_car'/>
    <trip id="late_morning_160" depart="32640.00" from="1463043806" to="54985260#6" type='dawn_car'/>
    <trip id="late_morning_161" depart="32641.50" from="25684551#9" to="-1075767203#0" type='dawn_car'/>
    <trip id="late_morning_162" depart="32643.00" from="-54985279#0" to="-620932850#1" type='dawn_car'/>
    <trip id="late_morning_163" depart="32644.50" from="25504350#1" to="-25684551#9" type='dawn_car'/>
    <trip id="late_morning_164" depart="32646.00" from="54985260#2" to="50449361#7" type='dawn_car'/>
    <trip id="late_morning_165" depart="32647.50" from="-54985279#3" to="25684551#4" type='dawn_car'/>
    <trip id="late_morning_166" depart="32649.00" from="25684557#1" to="-54985279#5" type='dawn_car'/>
    <trip id="late_morning_167" depart="32650.50" from="326037134#1" to="1124346622#2" type='dawn_car'/>
    <trip id="late_morning_168" depart="32652.00" from="192987238#1" to="-25486115#1" type='dawn_car'/>
    <trip id="late_morning_169" depart="32653.50" from="50831917" to="-25504350#0" type='dawn_car'/>
    <trip id="late_morning_170" depart="32655.00" from="50831915#1" to="-50831919#0" type='dawn_car'/>
    <trip id="late_morning_171" depart="32656.50" from="-53103893#1" to="170083666#2" type='dawn_car'/>
    <trip id="late_morning_172" depart="32658.00" from="49830666#6" to="54985260#11" type='dawn_car'/>
    <trip id="late_morning_173" depart="32659.50" from="-620932850#0" to="-50449361#2" type='dawn_car'/>
    <trip id="late_morning_174" depart="32661.00" from="51095930#0" to="-829563410#0" type='dawn_car'/>
    <trip id="late_morning_175" depart="32662.50" from="-25684557#3" to="50831915#2" type='dawn_car'/>
    <trip id="late_morning_176" depart="32664.00" from="25684557#5" to="-25684557#0" type='dawn_car'/>
    <trip id="late_morning_177" depart="32665.50" from="-51095934#0" to="53103882#0" type='dawn_car'/>
    <trip id="late_morning_178" depart="32667.00" from="-53103882#0" to="53103893#1" type='dawn_car'/>
    <trip id="late_morning_179" depart="32668.50" from="-64973297#1" to="-326037133#1" type='dawn_car'/>
    <trip id="late_morning_180" depart="32670.00" from="25684551#1" to="-51095930#2" type='dawn_car'/>
    <trip id="late_morning_181" depart="32671.50" from="829563410#1" to="192981425#0" type='dawn_car'/>
    <trip id="late_morning_182" depart="32673.00" from="-25504350#5" to="-53369130#1" type='dawn_car'/>
    <trip id="late_morning_183" depart="32674.50" from="-88247764#1" to="-635143862#0" type='dawn_car'/>
    <trip id="late_morning_184" depart="32676.00" from="326037133#1" to="620932850#2" type='dawn_car'/>
    <trip id="late_morning_185" depart="32677.50" from="580760138#1" to="53369130#1" type='dawn_car'/>
    <trip id="late_morning_186" depart="32679.00" from="622102031#5" to="37177801#2" type='dawn_car'/>
    <trip id="late_morning_187" depart="32680.50" from="174648253" to="-50831915#7" type='dawn_car'/>
    <trip id="late_morning_188" depart="32682.00" from="-54985260#15" to="-54985260#8" type='dawn_car'/>
    <trip id="late_morning_189" depart="32683.50" from="620932850#0" to="50449361#6" type='dawn_car'/>
    <trip id="late_morning_190" depart="32685.00" from="-1124346622#0" to="192981424#7" type='dawn_car'/>
    <trip id="late_morning_191" depart="32686.50" from="-50831918#0" to="-54985260#9" type='dawn_car'/>
    <trip id="late_morning_192" depart="32688.00" from="25684551#9" to="-829563410#2" type='dawn_car'/>
    <trip id="late_morning_193" depart="32689.50" from="50831916#1" to="1331576371#0" type='dawn_car'/>
    <trip id="late_morning_194" depart="32691.00" from="54985260#8" to="-54985279#2" type='dawn_car'/>
    <trip id="late_morning_195" depart="32692.50" from="-1331576371#1" to="-50831916#1" type='dawn_car'/>
    <trip id="late_morning_196" depart="32694.00" from="-25504350#4" to="54985260#0" type='dawn_car'/>
    <trip id="late_morning_197" depart="32695.50" from="-51095934#0" to="-130503625#0" type='dawn_car'/>
    <trip id="late_morning_198" depart="32697.00" from="-50449361#6" to="1177906287#0" type='dawn_car'/>
    <trip id="late_morning_199" depart="32698.50" from="-51095934#12" to="25684557#2" type='dawn_car'/>
    <trip id="late_morning_200" depart="32700.00" from="-170094575#2" to="477271462#5" type='dawn_car'/>
    <trip id="late_morning_201" depart="32701.50" from="170094575#2" to="-1124346622#0" type='dawn_car'/>
    <trip id="late_morning_202" depart="32703.00" from="-186475564#2" to="-54985260#8" type='dawn_car'/>
    <trip id="late_morning_203" depart="32704.50" from="-50831915#1" to="1204274369" type='dawn_car'/>
    <trip id="late_morning_204" depart="32706.00" from="25504350#0" to="-50449361#0" type='dawn_car'/>
    <trip id="late_morning_205" depart="32707.50" from="49830666#0" to="477271462#0" type='dawn_car'/>
    <trip id="late_morning_206" depart="32709.00" from="186475564#2" to="-25684551#0" type='dawn_car'/>
    <trip id="late_morning_207" depart="32710.50" from="-51095934#1" to="-88247764#10" type='dawn_car'/>
    <trip id="late_morning_208" depart="32712.00" from="-477271462#1" to="50831915#0" type='dawn_car'/>
    <trip id="late_morning_209" depart="32713.50" from="88247764#5" to="88247764#4" type='dawn_car'/>
    <trip id="late_morning_210" depart="32715.00" from="580760138#2" to="326037134#0" type='dawn_car'/>
    <trip id="late_morning_211" depart="32716.50" from="-54985260#11" to="-54985279#5" type='dawn_car'/>
    <trip id="late_morning_212" depart="32718.00" from="25504350#0" to="-51095934#3" type='dawn_car'/>
    <trip id="late_morning_213" depart="32719.50" from="54985260#6" to="53103893#0" type='dawn_car'/>
    <trip id="late_morning_214" depart="32721.00" from="-1331576371#0" to="1395767647#0" type='dawn_car'/>
    <trip id="late_morning_215" depart="32722.50" from="-50831918#1" to="50831915#7" type='dawn_car'/>
    <trip id="late_morning_216" depart="32724.00" from="-50449361#2" to="-51543398#0" type='dawn_car'/>
    <trip id="late_morning_217" depart="32725.50" from="53103882#0" to="-622102031#7" type='dawn_car'/>
    <trip id="late_morning_218" depart="32727.00" from="-50831915#0" to="-170094575#3" type='dawn_car'/>
    <trip id="late_morning_219" depart="32728.50" from="-622102030#1" to="-183263069#1" type='dawn_car'/>
    <trip id="late_morning_220" depart="32730.00" from="49830666#5" to="326037134#1" type='dawn_car'/>
    <trip id="late_morning_221" depart="32731.50" from="326037134#1" to="50831917" type='dawn_car'/>
    <trip id="late_morning_222" depart="32733.00" from="-51095934#7" to="1395767642" type='dawn_car'/>
    <trip id="late_morning_223" depart="32734.50" from="170083666#2" to="-54985260#6" type='dawn_car'/>
    <trip id="late_morning_224" depart="32736.00" from="-475735005" to="88247764#5" type='dawn_car'/>
    <trip id="late_morning_225" depart="32737.50" from="54985260#11" to="-50449361#1" type='dawn_car'/>
    <trip id="late_morning_226" depart="32739.00" from="-50831919#0" to="622102031#6" type='dawn_car'/>
    <trip id="late_morning_227" depart="32740.50" from="-54985279#4" to="-25684551#0" type='dawn_car'/>
    <trip id="late_morning_228" depart="32742.00" from="25504350#1" to="-50831915#9" type='dawn_car'/>
    <trip id="late_morning_229" depart="32743.50" from="-88247764#3" to="-50831915#6" type='dawn_car'/>
    <trip id="late_morning_230" depart="32745.00" from="1395767648#0" to="170094575#3" type='dawn_car'/>
    <trip id="late_morning_231" depart="32746.50" from="1395767649#0" to="51095934#11" type='dawn_car'/>
    <trip id="late_morning_232" depart="32748.00" from="-51095934#1" to="54985260#3" type='dawn_car'/>
    <trip id="late_morning_233" depart="32749.50" from="1124346622#0" to="192981424#7" type='dawn_car'/>
    <trip id="late_morning_234" depart="32751.00" from="88247764#8" to="-622102031#4" type='dawn_car'/>
    <trip id="late_morning_235" depart="32752.50" from="-25684557#1" to="192981424#2" type='dawn_car'/>
    <trip id="late_morning_236" depart="32754.00" from="88247764#10" to="50831914#0" type='dawn_car'/>
    <trip id="late_morning_237" depart="32755.50" from="-25684551#1" to="51095934#8" type='dawn_car'/>
    <trip id="late_morning_238" depart="32757.00" from="25684557#5" to="-174648253" type='dawn_car'/>
    <trip id="late_morning_239" depart="32758.50" from="277523407#0" to="-1395767649#0" type='dawn_car'/>
    <trip id="late_morning_240" depart="32760.00" from="51095930#1" to="622102031#3" type='dawn_car'/>
    <trip id="late_morning_241" depart="32761.50" from="170094575#3" to="-580760138#3" type='dawn_car'/>
    <trip id="late_morning_242" depart="32763.00" from="-88247764#1" to="-50449361#6" type='dawn_car'/>
    <trip id="late_morning_243" depart="32764.50" from="-1395767648#0" to="-50449361#6" type='dawn_car'/>
    <trip id="late_morning_244" depart="32766.00" from="1124346622#0" to="186475564#4" type='dawn_car'/>
    <trip id="late_morning_245" depart="32767.50" from="-130503625#0" to="-50831916#1" type='dawn_car'/>
    <trip id="late_morning_246" depart="32769.00" from="-54985260#6" to="186475564#3" type='dawn_car'/>
    <trip id="late_morning_247" depart="32770.50" from="-88247764#4" to="50831915#4" type='dawn_car'/>
    <trip id="late_morning_248" depart="32772.00" from="-25684557#3" to="-54985260#5" type='dawn_car'/>
    <trip id="late_morning_249" depart="32773.50" from="49830666#2" to="-170094572#2" type='dawn_car'/>
    <trip id="late_morning_250" depart="32775.00" from="-1124346621" to="-25504350#3" type='dawn_car'/>
    <trip id="late_morning_251" depart="32776.50" from="192987238#1" to="49830666#4" type='dawn_car'/>
    <trip id="late_morning_252" depart="32778.00" from="51095934#4" to="-51095934#4" type='dawn_car'/>
    <trip id="late_morning_253" depart="32779.50" from="50831915#2" to="-477271462#3" type='dawn_car'/>
    <trip id="late_morning_254" depart="32781.00" from="-477271462#4" to="51095934#8" type='dawn_car'/>
    <trip id="late_morning_255" depart="32782.50" from="-622102031#2" to="-88247764#6" type='dawn_car'/>
    <trip id="late_morning_256" depart="32784.00" from="51543398#1" to="-50449361#0" type='dawn_car'/>
    <trip id="late_morning_257" depart="32785.50" from="-50831915#11" to="829563410#1" type='dawn_car'/>
    <trip id="late_morning_258" depart="32787.00" from="-50831914#0" to="-477271462#0" type='dawn_car'/>
    <trip id="late_morning_259" depart="32788.50" from="88247764#6" to="-88247764#2" type='dawn_car'/>
    <trip id="late_morning_260" depart="32790.00" from="-622102031#2" to="54985260#10" type='dawn_car'/>
    <trip id="late_morning_261" depart="32791.50" from="477271462#3" to="829563410#1" type='dawn_car'/>
    <trip id="late_morning_262" depart="32793.00" from="622102031#3" to="25684551#1" type='dawn_car'/>
    <trip id="late_morning_263" depart="32794.50" from="-186475564#0" to="54985279#3" type='dawn_car'/>
    <trip id="late_morning_264" depart="32796.00" from="50449361#4" to="-25684551#3" type='dawn_car'/>
    <trip id="late_morning_265" depart="32797.50" from="-170094575#2" to="50449361#2" type='dawn_car'/>
    <trip id="late_morning_266" depart="32799.00" from="25684487" to="-477271462#0" type='dawn_car'/>
    <trip id="late_morning_267" depart="32800.50" from="-477271462#3" to="622102031#6" type='dawn_car'/>
    <trip id="late_morning_268" depart="32802.00" from="88247764#2" to="-1395767648#1" type='dawn_car'/>
    <trip id="late_morning_269" depart="32803.50" from="829563410#1" to="277523407#2" type='dawn_car'/>
    <trip id="late_morning_270" depart="32805.00" from="580760138#3" to="51095934#10" type='dawn_car'/>
    <trip id="late_morning_271" depart="32806.50" from="-51095934#2" to="-620932850#0" type='dawn_car'/>
    <trip id="late_morning_272" depart="32808.00" from="-1124346622#0" to="170094575#1" type='dawn_car'/>
    <trip id="late_morning_273" depart="32809.50" from="54985260#7" to="53103893#0" type='dawn_car'/>
    <trip id="late_morning_274" depart="32811.00" from="1124346621" to="-25684557#4" type='dawn_car'/>
    <trip id="late_morning_275" depart="32812.50" from="51095934#0" to="192981424#7" type='dawn_car'/>
    <trip id="late_morning_276" depart="32814.00" from="829563410#0" to="1124346622#2" type='dawn_car'/>
    <trip id="late_morning_277" depart="32815.50" from="25504350#1" to="25504350#2" type='dawn_car'/>
    <trip id="late_morning_278" depart="32817.00" from="620932850#3" to="37177801#3" type='dawn_car'/>
    <trip id="late_morning_279" depart="32818.50" from="-53103893#1" to="-51095934#3" type='dawn_car'/>
    <trip id="late_morning_280" depart="32820.00" from="-54985260#13" to="51510531#1" type='dawn_car'/>
    <trip id="late_morning_281" depart="32821.50" from="170094572#2" to="183263068#1" type='dawn_car'/>
    <trip id="late_morning_282" depart="32823.00" from="-186475564#3" to="-51543398#1" type='dawn_car'/>