<?xml version="1.0" encoding="UTF-8"?>

<!-- generated on 2026-03-12 22:49:43.811118 by Eclipse SUMO randomTrips.py v1_26_0+0000-fa7df22d7f1
<configuration>
    <net-file value=".\data\networks\city_006.net.xml"/>
    <output-trip-file value=".\data\routes\scenarios_03\lunch.rou.xml"/>
    <prefix value="lunch_"/>
    <trip-attributes value="type='lunch_car'"/>
    <seed value="2026"/>
    <begin value="43200.0"/>
    <end value="50400.0"/>
    <period value="1.0"/>
</configuration>
-->

<routes xmlns:xsi="http://www.w3.org/2001/XMLSchema-instance" xsi:noNamespaceSchemaLocation="http://sumo.dlr.de/xsd/routes_file.xsd">
    <trip id="lunch_0" depart="43200.00" from="1395767649#0" to="54985260#12" type='lunch_car'/>
    <trip id="lunch_1" depart="43201.00" from="-25486114#0" to="-50831917" type='lunch_car'/>
    <trip id="lunch_2" depart="43202.00" from="25486115#1" to="192981424#6" type='lunch_car'/>
    <trip id="lunch_3" depart="43203.00" from="50831918#0" to="192981424#0" type='lunch_car'/>
    <trip id="lunch_4" depart="43204.00" from="50449361#1" to="50831918#0" type='lunch_car'/>
    <trip id="lunch_5" depart="43205.00" from="50831915#0" to="25486115#2" type='lunch_car'/>
    <trip id="lunch_6" depart="43206.00" from="-50831915#8" to="25684551#3" type='lunch_car'/>
    <trip id="lunch_7" depart="43207.00" from="-25504350#0" to="51095934#8" type='lunch_car'/>
    <trip id="lunch_8" depart="43208.00" from="-829563410#2" to="51095934#7" type='lunch_car'/>
    <trip id="lunch_9" depart="43209.00" from="-50449361#7" to="-51095934#2" type='lunch_car'/>
    <trip id="lunch_10" depart="43210.00" from="88247764#10" to="622102030#2" type='lunch_car'/>
    <trip id="lunch_11" depart="43211.00" from="1395767649#0" to="-25486114#0" type='lunch_car'/>
    <trip id="lunch_12" depart="43212.00" from="-54985260#10" to="192981424#6" type='lunch_car'/>
    <trip id="lunch_13" depart="43213.00" from="-51095934#4" to="1177906287#0" type='lunch_car'/>
    <trip id="lunch_14" depart="43214.00" from="54985260#3" to="49830666#4" type='lunch_car'/>
    <trip id="lunch_15" depart="43215.00" from="49830666#0" to="-580760138#6" type='lunch_car'/>
    <trip id="lunch_16" depart="43216.00" from="-622102031#2" to="-622102031#7" type='lunch_car'/>
    <trip id="lunch_17" depart="43217.00" from="192987238#1" to="1395767649#0" type='lunch_car'/>
    <trip id="lunch_18" depart="43218.00" from="-25504350#2" to="170083666#2" type='lunch_car'/>
    <trip id="lunch_19" depart="43219.00" from="50831915#0" to="25504350#5" type='lunch_car'/>
    <trip id="lunch_20" depart="43220.00" from="1124346622#1" to="580760138#6" type='lunch_car'/>
    <trip id="lunch_21" depart="43221.00" from="-50831919#1" to="-88247764#10" type='lunch_car'/>
    <trip id="lunch_22" depart="43222.00" from="620932850#1" to="1331576371#1" type='lunch_car'/>
    <trip id="lunch_23" depart="43223.00" from="-50831915#11" to="-25684557#0" type='lunch_car'/>
    <trip id="lunch_24" depart="43224.00" from="-1395767647#0" to="49830666#4" type='lunch_car'/>
    <trip id="lunch_25" depart="43225.00" from="25684487" to="130503625#0" type='lunch_car'/>
    <trip id="lunch_26" depart="43226.00" from="1075767203#1" to="-51095930#0" type='lunch_car'/>
    <trip id="lunch_27" depart="43227.00" from="54985260#7" to="25684557#0" type='lunch_car'/>
    <trip id="lunch_28" depart="43228.00" from="-88247764#1" to="130503625#0" type='lunch_car'/>
    <trip id="lunch_29" depart="43229.00" from="620932850#3" to="88247764#4" type='lunch_car'/>
    <trip id="lunch_30" depart="43230.00" from="170590846" to="192981424#7" type='lunch_car'/>
    <trip id="lunch_31" depart="43231.00" from="277523407#1" to="-54985260#12" type='lunch_car'/>
    <trip id="lunch_32" depart="43232.00" from="-88247764#9" to="54985260#7" type='lunch_car'/>
    <trip id="lunch_33" depart="43233.00" from="-622102031#6" to="-53369130#1" type='lunch_car'/>
    <trip id="lunch_34" depart="43234.00" from="-51095934#0" to="-1395767649#0" type='lunch_car'/>
    <trip id="lunch_35" depart="43235.00" from="25684557#4" to="25504350#4" type='lunch_car'/>
    <trip id="lunch_36" depart="43236.00" from="-88247764#1" to="170094575#1" type='lunch_car'/>
    <trip id="lunch_37" depart="43237.00" from="1124346622#0" to="620932850#1" type='lunch_car'/>
    <trip id="lunch_38" depart="43238.00" from="1395767648#1" to="51510531#1" type='lunch_car'/>
    <trip id="lunch_39" depart="43239.00" from="580760138#0" to="52152425#1" type='lunch_car'/>
    <trip id="lunch_40" depart="43240.00" from="-186475564#3" to="477271462#4" type='lunch_car'/>
    <trip id="lunch_41" depart="43241.00" from="64973297#1" to="53103893#1" type='lunch_car'/>
    <trip id="lunch_42" depart="43242.00" from="-88247764#9" to="-183263068#0" type='lunch_car'/>
    <trip id="lunch_43" depart="43243.00" from="-51095930#2" to="1395767649#0" type='lunch_car'/>
    <trip id="lunch_44" depart="43244.00" from="-186475564#2" to="50831915#4" type='lunch_car'/>
    <trip id="lunch_45" depart="43245.00" from="-622102030#1" to="1124346622#0" type='lunch_car'/>
    <trip id="lunch_46" depart="43246.00" from="-1124346622#2" to="-1075767203#0" type='lunch_car'/>
    <trip id="lunch_47" depart="43247.00" from="192981425#1" to="622102030#3" type='lunch_car'/>
    <trip id="lunch_48" depart="43248.00" from="-183263068#0" to="51095934#12" type='lunch_car'/>
    <trip id="lunch_49" depart="43249.00" from="-50831916#1" to="25684551#6" type='lunch_car'/>
    <trip id="lunch_50" depart="43250.00" from="50831915#1" to="635143862#0" type='lunch_car'/>
    <trip id="lunch_51" depart="43251.00" from="277523407#1" to="25684557#4" type='lunch_car'/>
    <trip id="lunch_52" depart="43252.00" from="192987238#0" to="50831918#0" type='lunch_car'/>
    <trip id="lunch_53" depart="43253.00" from="622102031#4" to="1395767647#1" type='lunch_car'/>
    <trip id="lunch_54" depart="43254.00" from="49830666#4" to="-25684557#3" type='lunch_car'/>
    <trip id="lunch_55" depart="43255.00" from="-50831915#10" to="25504350#0" type='lunch_car'/>
    <trip id="lunch_56" depart="43256.00" from="622102031#7" to="54985260#4" type='lunch_car'/>
    <trip id="lunch_57" depart="43257.00" from="277523407#1" to="622102031#0" type='lunch_car'/>
    <trip id="lunch_58" depart="43258.00" from="50831919#0" to="580760138#6" type='lunch_car'/>
    <trip id="lunch_59" depart="43259.00" from="-51510530" to="-829563410#1" type='lunch_car'/>
    <trip id="lunch_60" depart="43260.00" from="-25486115#1" to="54985260#9" type='lunch_car'/>
    <trip id="lunch_61" depart="43261.00" from="-1395767647#1" to="-54985279#5" type='lunch_car'/>
    <trip id="lunch_62" depart="43262.00" from="-54985260#16" to="50831918#0" type='lunch_car'/>
    <trip id="lunch_63" depart="43263.00" from="-53103899" to="-54985260#10" type='lunch_car'/>
    <trip id="lunch_64" depart="43264.00" from="170083666#1" to="-88247764#7" type='lunch_car'/>
    <trip id="lunch_65" depart="43265.00" from="-54985260#1" to="25504350#4" type='lunch_car'/>
    <trip id="lunch_66" depart="43266.00" from="326037133#1" to="-186475564#1" type='lunch_car'/>
    <trip id="lunch_67" depart="43267.00" from="-580760138#6" to="-50831915#1" type='lunch_car'/>
    <trip id="lunch_68" depart="43268.00" from="580760138#6" to="-170094572#4" type='lunch_car'/>
    <trip id="lunch_69" depart="43269.00" from="170590846" to="53103893#0" type='lunch_car'/>
    <trip id="lunch_70" depart="43270.00" from="-477271462#2" to="49830666#7" type='lunch_car'/>
    <trip id="lunch_71" depart="43271.00" from="54985260#3" to="-25684557#1" type='lunch_car'/>
    <trip id="lunch_72" depart="43272.00" from="170094572#3" to="51095934#0" type='lunch_car'/>
    <trip id="lunch_73" depart="43273.00" from="170083666#0" to="635143862#0" type='lunch_car'/>
    <trip id="lunch_74" depart="43274.00" from="-25684557#5" to="53103899" type='lunch_car'/>
    <trip id="lunch_75" depart="43275.00" from="-622102030#2" to="-25486115#0" type='lunch_car'/>
    <trip id="lunch_76" depart="43276.00" from="-51510530" to="-54985279#4" type='lunch_car'/>
    <trip id="lunch_77" depart="43277.00" from="-51095930#1" to="1395767648#1" type='lunch_car'/>
    <trip id="lunch_78" depart="43278.00" from="50831917" to="-88247764#0" type='lunch_car'/>
    <trip id="lunch_79" depart="43279.00" from="-88247764#4" to="-54985260#6" type='lunch_car'/>
    <trip id="lunch_80" depart="43280.00" from="51095934#1" to="51095934#13" type='lunch_car'/>
    <trip id="lunch_81" depart="43281.00" from="51095934#5" to="53369130#1" type='lunch_car'/>
    <trip id="lunch_82" depart="43282.00" from="-50831915#4" to="626880271#0" type='lunch_car'/>
    <trip id="lunch_83" depart="43283.00" from="54985260#4" to="277523407#1" type='lunch_car'/>
    <trip id="lunch_84" depart="43284.00" from="-620932850#3" to="51095930#2" type='lunch_car'/>
    <trip id="lunch_85" depart="43285.00" from="53369130#0" to="37177801#3" type='lunch_car'/>
    <trip id="lunch_86" depart="43286.00" from="635143862#0" to="-580760138#1" type='lunch_car'/>
    <trip id="lunch_87" depart="43287.00" from="-25684557#4" to="192981425#0" type='lunch_car'/>
    <trip id="lunch_88" depart="43288.00" from="-25486115#2" to="50449361#2" type='lunch_car'/>
    <trip id="lunch_89" depart="43289.00" from="-50831914#1" to="-53369130#1" type='lunch_car'/>
    <trip id="lunch_90" depart="43290.00" from="-51095934#0" to="192981424#6" type='lunch_car'/>
    <trip id="lunch_91" depart="43291.00" from="622102031#6" to="-50449361#0" type='lunch_car'/>
    <trip id="lunch_92" depart="43292.00" from="49830666#5" to="-50449361#6" type='lunch_car'/>
    <trip id="lunch_93" depart="43293.00" from="25684551#10" to="170083666#2" type='lunch_car'/>
    <trip id="lunch_94" depart="43294.00" from="-51095934#12" to="53103882#1" type='lunch_car'/>
    <trip id="lunch_95" depart="43295.00" from="-51095930#0" to="-183263068#0" type='lunch_car'/>
    <trip id="lunch_96" depart="43296.00" from="-622102030#1" to="54985279#3" type='lunch_car'/>
    <trip id="lunch_97" depart="43297.00" from="50831916#1" to="-829563410#2" type='lunch_car'/>
    <trip id="lunch_98" depart="43298.00" from="-1124346622#2" to="-25504350#3" type='lunch_car'/>
    <trip id="lunch_99" depart="43299.00" from="622102030#2" to="-580760138#1" type='lunch_car'/>
    <trip id="lunch_100" depart="43300.00" from="50831917" to="25684551#1" type='lunch_car'/>
    <trip id="lunch_101" depart="43301.00" from="25684557#4" to="25684551#3" type='lunch_car'/>
    <trip id="lunch_102" depart="43302.00" from="620932850#1" to="-54985260#2" type='lunch_car'/>
    <trip id="lunch_103" depart="43303.00" from="88247764#1" to="54985260#5" type='lunch_car'/>
    <trip id="lunch_104" depart="43304.00" from="326037134#0" to="620932850#2" type='lunch_car'/>
    <trip id="lunch_105" depart="43305.00" from="-54985260#2" to="50831915#1" type='lunch_car'/>
    <trip id="lunch_106" depart="43306.00" from="622102031#7" to="51095934#15" type='lunch_car'/>
    <trip id="lunch_107" depart="43307.00" from="-25504350#5" to="50831918#0" type='lunch_car'/>
    <trip id="lunch_108" depart="43308.00" from="-53103882#0" to="54985279#5" type='lunch_car'/>
    <trip id="lunch_109" depart="43309.00" from="170590845" to="-54985279#3" type='lunch_car'/>
    <trip id="lunch_110" depart="43310.00" from="-25504350#0" to="25684551#5" type='lunch_car'/>
    <trip id="lunch_111" depart="43311.00" from="-25504350#3" to="-25684551#9" type='lunch_car'/>
    <trip id="lunch_112" depart="43312.00" from="-54985260#16" to="277523407#2" type='lunch_car'/>
    <trip id="lunch_113" depart="43313.00" from="25684557#4" to="-1395767648#0" type='lunch_car'/>
    <trip id="lunch_114" depart="43314.00" from="192981425#0" to="-580760138#3" type='lunch_car'/>
    <trip id="lunch_115" depart="43315.00" from="-54985279#4" to="-51095934#1" type='lunch_car'/>
    <trip id="lunch_116" depart="43316.00" from="-622102031#1" to="-50831916#1" type='lunch_car'/>
    <trip id="lunch_117" depart="43317.00" from="-25504350#6" to="186475564#3" type='lunch_car'/>
    <trip id="lunch_118" depart="43318.00" from="262767663#1" to="622102031#0" type='lunch_car'/>
    <trip id="lunch_119" depart="43319.00" from="326037134#1" to="-622102031#6" type='lunch_car'/>
    <trip id="lunch_120" depart="43320.00" from="-50831918#1" to="-326037134#0" type='lunch_car'/>
    <trip id="lunch_121" depart="43321.00" from="-1204274369" to="-52152425#0" type='lunch_car'/>
    <trip id="lunch_122" depart="43322.00" from="192987238#4" to="53103893#0" type='lunch_car'/>
    <trip id="lunch_123" depart="43323.00" from="183263069#1" to="309448838" type='lunch_car'/>
    <trip id="lunch_124" depart="43324.00" from="-51095930#2" to="25684557#3" type='lunch_car'/>
    <trip id="lunch_125" depart="43325.00" from="50831915#10" to="-54985260#2" type='lunch_car'/>
    <trip id="lunch_126" depart="43326.00" from="25684557#5" to="-1124346622#0" type='lunch_car'/>
    <trip id="lunch_127" depart="43327.00" from="88247764#1" to="130503625#1" type='lunch_car'/>
    <trip id="lunch_128" depart="43328.00" from="829563410#1" to="475735005" type='lunch_car'/>
    <trip id="lunch_129" depart="43329.00" from="54985260#11" to="622102030#1" type='lunch_car'/>
    <trip id="lunch_130" depart="43330.00" from="580760138#0" to="-622102031#7" type='lunch_car'/>
    <trip id="lunch_131" depart="43331.00" from="88247764#0" to="622102031#7" type='lunch_car'/>
    <trip id="lunch_132" depart="43332.00" from="-54985260#12" to="-50831915#3" type='lunch_car'/>
    <trip id="lunch_133" depart="43333.00" from="-54985260#3" to="25684557#5" type='lunch_car'/>
    <trip id="lunch_134" depart="43334.00" from="183263068#0" to="130503625#2" type='lunch_car'/>
    <trip id="lunch_135" depart="43335.00" from="51095930#1" to="25486114#0" type='lunch_car'/>
    <trip id="lunch_136" depart="43336.00" from="-477271462#2" to="25684557#1" type='lunch_car'/>
    <trip id="lunch_137" depart="43337.00" from="-25684557#2" to="54985279#1" type='lunch_car'/>
    <trip id="lunch_138" depart="43338.00" from="622102031#4" to="51095934#7" type='lunch_car'/>
    <trip id="lunch_139" depart="43339.00" from="-183263068#0" to="-620932850#3" type='lunch_car'/>
    <trip id="lunch_140" depart="43340.00" from="50449361#1" to="-25684557#4" type='lunch_car'/>
    <trip id="lunch_141" depart="43341.00" from="50449361#4" to="88247764#9" type='lunch_car'/>
    <trip id="lunch_142" depart="43342.00" from="-1177906287#0" to="-50831916#0" type='lunch_car'/>
    <trip id="lunch_143" depart="43343.00" from="53369130#0" to="25486114#1" type='lunch_car'/>
    <trip id="lunch_144" depart="43344.00" from="-54985279#3" to="64973297#1" type='lunch_car'/>
    <trip id="lunch_145" depart="43345.00" from="170083666#0" to="277523407#0" type='lunch_car'/>
    <trip id="lunch_146" depart="43346.00" from="-183263068#1" to="50831914#1" type='lunch_car'/>
    <trip id="lunch_147" depart="43347.00" from="-53369130#2" to="-51095934#6" type='lunch_car'/>
    <trip id="lunch_148" depart="43348.00" from="-1395767642" to="25504350#2" type='lunch_car'/>
    <trip id="lunch_149" depart="43349.00" from="51095930#0" to="-477271462#2" type='lunch_car'/>
    <trip id="lunch_150" depart="43350.00" from="-51095934#5" to="186475564#2" type='lunch_car'/>
    <trip id="lunch_151" depart="43351.00" from="-54985260#3" to="87080018" type='lunch_car'/>
    <trip id="lunch_152" depart="43352.00" from="-477271462#2" to="50831915#4" type='lunch_car'/>
    <trip id="lunch_153" depart="43353.00" from="-1124346622#0" to="25504350#7" type='lunch_car'/>
    <trip id="lunch_154" depart="43354.00" from="1075767203#0" to="-88247764#2" type='lunch_car'/>
    <trip id="lunch_155" depart="43355.00" from="51095934#3" to="54985279#5" type='lunch_car'/>
    <trip id="lunch_156" depart="43356.00" from="88247764#1" to="88247764#8" type='lunch_car'/>
    <trip id="lunch_157" depart="43357.00" from="-326037134#1" to="170094573" type='lunch_car'/>
    <trip id="lunch_158" depart="43358.00" from="-475735004" to="186475564#1" type='lunch_car'/>
    <trip id="lunch_159" depart="43359.00" from="-326037133#0" to="54985260#9" type='lunch_car'/>
    <trip id="lunch_160" depart="43360.00" from="1463043806" to="54985260#6" type='lunch_car'/>
    <trip id="lunch_161" depart="43361.00" from="25684551#9" to="-1075767203#0" type='lunch_car'/>
    <trip id="lunch_162" depart="43362.00" from="-54985279#0" to="-620932850#1" type='lunch_car'/>
    <trip id="lunch_163" depart="43363.00" from="25504350#1" to="-25684551#9" type='lunch_car'/>
    <trip id="lunch_164" depart="43364.00" from="54985260#2" to="50449361#7" type='lunch_car'/>
    <trip id="lunch_165" depart="43365.00" from="-54985279#3" to="25684551#4" type='lunch_car'/>
    <trip id="lunch_166" depart="43366.00" from="25684557#1" to="-54985279#5" type='lunch_car'/>
    <trip id="lunch_167" depart="43367.00" from="326037134#1" to="1124346622#2" type='lunch_car'/>
    <trip id="lunch_168" depart="43368.00" from="192987238#1" to="-25486115#1" type='lunch_car'/>
    <trip id="lunch_169" depart="43369.00" from="50831917" to="-25504350#0" type='lunch_car'/>
    <trip id="lunch_170" depart="43370.00" from="50831915#1" to="-50831919#0" type='lunch_car'/>
    <trip id="lunch_171" depart="43371.00" from="-53103893#1" to="170083666#2" type='lunch_car'/>
    <trip id="lunch_172" depart="43372.00" from="49830666#6" to="54985260#11" type='lunch_car'/>
    <trip id="lunch_173" depart="43373.00" from="-620932850#0" to="-50449361#2" type='lunch_car'/>
    <trip id="lunch_174" depart="43374.00" from="51095930#0" to="-829563410#0" type='lunch_car'/>
    <trip id="lunch_175" depart="43375.00" from="-25684557#3" to="50831915#2" type='lunch_car'/>
    <trip id="lunch_176" depart="43376.00" from="25684557#5" to="-25684557#0" type='lunch_car'/>
    <trip id="lunch_177" depart="43377.00" from="-51095934#0" to="53103882#0" type='lunch_car'/>
    <trip id="lunch_178" depart="43378.00" from="-53103882#0" to="53103893#1" type='lunch_car'/>
    <trip id="lunch_179" depart="43379.00" from="-64973297#1" to="-326037133#1" type='lunch_car'/>
    <trip id="lunch_180" depart="43380.00" from="25684551#1" to="-51095930#2" type='lunch_car'/>
    <trip id="lunch_181" depart="43381.00" from="829563410#1" to="192981425#0" type='lunch_car'/>
    <trip id="lunch_182" depart="43382.00" from="-25504350#5" to="-53369130#1" type='lunch_car'/>
    <trip id="lunch_183" depart="43383.00" from="-88247764#1" to="-635143862#0" type='lunch_car'/>
    <trip id="lunch_184" depart="43384.00" from="326037133#1" to="620932850#2" type='lunch_car'/>
    <trip id="lunch_185" depart="43385.00" from="580760138#1" to="53369130#1" type='lunch_car'/>
    <trip id="lunch_186" depart="43386.00" from="622102031#5" to="37177801#2" type='lunch_car'/>
    <trip id="lunch_187" depart="43387.00" from="174648253" to="-50831915#7" type='lunch_car'/>
    <trip id="lunch_188" depart="43388.00" from="-54985260#15" to="-54985260#8" type='lunch_car'/>
    <trip id="lunch_189" depart="43389.00" from="620932850#0" to="50449361#6" type='lunch_car'/>
    <trip id="lunch_190" depart="43390.00" from="-1124346622#0" to="192981424#7" type='lunch_car'/>
    <trip id="lunch_191" depart="43391.00" from="-50831918#0" to="-54985260#9" type='lunch_car'/>
    <trip id="lunch_192" depart="43392.00" from="25684551#9" to="-829563410#2" type='lunch_car'/>
    <trip id="lunch_193" depart="43393.00" from="50831916#1" to="1331576371#0" type='lunch_car'/>
    <trip id="lunch_194" depart="43394.00" from="54985260#8" to="-54985279#2" type='lunch_car'/>
    <trip id="lunch_195" depart="43395.00" from="-1331576371#1" to="-50831916#1" type='lunch_car'/>
    <trip id="lunch_196" depart="43396.00" from="-25504350#4" to="54985260#0" type='lunch_car'/>
    <trip id="lunch_197" depart="43397.00" from="-51095934#0" to="-130503625#0" type='lunch_car'/>
    <trip id="lunch_198" depart="43398.00" from="-50449361#6" to="1177906287#0" type='lunch_car'/>
    <trip id="lunch_199" depart="43399.00" from="-51095934#12" to="25684557#2" type='lunch_car'/>
    <trip id="lunch_200" depart="43400.00" from="-170094575#2" to="477271462#5" type='lunch_car'/>
    <trip id="lunch_201" depart="43401.00" from="170094575#2" to="-1124346622#0" type='lunch_car'/>
    <trip id="lunch_202" depart="43402.00" from="-186475564#2" to="-54985260#8" type='lunch_car'/>
    <trip id="lunch_203" depart="43403.00" from="-50831915#1" to="1204274369" type='lunch_car'/>
    <trip id="lunch_204" depart="43404.00" from="25504350#0" to="-50449361#0" type='lunch_car'/>
    <trip id="lunch_205" depart="43405.00" from="49830666#0" to="477271462#0" type='lunch_car'/>
    <trip id="lunch_206" depart="43406.00" from="186475564#2" to="-25684551#0" type='lunch_car'/>
    <trip id="lunch_207" depart="43407.00" from="-51095934#1" to="-88247764#10" type='lunch_car'/>
    <trip id="lunch_208" depart="43408.00" from="-477271462#1" to="50831915#0" type='lunch_car'/>
    <trip id="lunch_209" depart="43409.00" from="88247764#5" to="88247764#4" type='lunch_car'/>
    <trip id="lunch_210" depart="43410.00" from="580760138#2" to="326037134#0" type='lunch_car'/>
    <trip id="lunch_211" depart="43411.00" from="-54985260#11" to="-54985279#5" type='lunch_car'/>
    <trip id="lunch_212" depart="43412.00" from="25504350#0" to="-51095934#3" type='lunch_car'/>
    <trip id="lunch_213" depart="43413.00" from="54985260#6" to="53103893#0" type='lunch_car'/>
    <trip id="lunch_214" depart="43414.00" from="-1331576371#0" to="1395767647#0" type='lunch_car'/>
    <trip id="lunch_215" depart="43415.00" from="-50831918#1" to="50831915#7" type='lunch_car'/>
    <trip id="lunch_216" depart="43416.00" from="-50449361#2" to="-51543398#0" type='lunch_car'/>
    <trip id="lunch_217" depart="43417.00" from="53103882#0" to="-622102031#7" type='lunch_car'/>
    <trip id="lunch_218" depart="43418.00" from="-50831915#0" to="-170094575#3" type='lunch_car'/>
    <trip id="lunch_219" depart="43419.00" from="-622102030#1" to="-183263069#1" type='lunch_car'/>
    <trip id="lunch_220" depart="43420.00" from="49830666#5" to="326037134#1" type='lunch_car'/>
    <trip id="lunch_221" depart="43421.00" from="326037134#1" to="50831917" type='lunch_car'/>
    <trip id="lunch_222" depart="43422.00" from="-51095934#7" to="1395767642" type='lunch_car'/>
    <trip id="lunch_223" depart="43423.00" from="170083666#2" to="-54985260#6" type='lunch_car'/>
    <trip id="lunch_224" depart="43424.00" from="-475735005" to="88247764#5" type='lunch_car'/>
    <trip id="lunch_225" depart="43425.00" from="54985260#11" to="-50449361#1" type='lunch_car'/>
    <trip id="lunch_226" depart="43426.00" from="-50831919#0" to="622102031#6" type='lunch_car'/>
    <trip id="lunch_227" depart="43427.00" from="-54985279#4" to="-25684551#0" type='lunch_car'/>
    <trip id="lunch_228" depart="43428.00" from="25504350#1" to="-50831915#9" type='lunch_car'/>
    <trip id="lunch_229" depart="43429.00" from="-88247764#3" to="-50831915#6" type='lunch_car'/>
    <trip id="lunch_230" depart="43430.00" from="1395767648#0" to="170094575#3" type='lunch_car'/>
    <trip id="lunch_231" depart="43431.00" from="1395767649#0" to="51095934#11" type='lunch_car'/>
    <trip id="lunch_232" depart="43432.00" from="-51095934#1" to="54985260#3" type='lunch_car'/>
    <trip id="lunch_233" depart="43433.00" from="1124346622#0" to="192981424#7" type='lunch_car'/>
    <trip id="lunch_234" depart="43434.00" from="88247764#8" to="-622102031#4" type='lunch_car'/>
    <trip id="lunch_235" depart="43435.00" from="-25684557#1" to="192981424#2" type='lunch_car'/>
    <trip id="lunch_236" depart="43436.00" from="88247764#10" to="50831914#0" type='lunch_car'/>
    <trip id="lunch_237" depart="43437.00" from="-25684551#1" to="51095934#8" type='lunch_car'/>
    <trip id="lunch_238" depart="43438.00" from="25684557#5" to="-174648253" type='lunch_car'/>
    <trip id="lunch_239" depart="43439.00" from="277523407#0" to="-1395767649#0" type='lunch_car'/>
    <trip id="lunch_240" depart="43440.00" from="51095930#1" to="622102031#3" type='lunch_car'/>
    <trip id="lunch_241" depart="43441.00" from="170094575#3" to="-580760138#3" type='lunch_car'/>
    <trip id="lunch_242" depart="43442.00" from="-88247764#1" to="-50449361#6" type='lunch_car'/>
    <trip id="lunch_243" depart="43443.00" from="-1395767648#0" to="-50449361#6" type='lunch_car'/>
    <trip id="lunch_244" depart="43444.00" from="1124346622#0" to="186475564#4" type='lunch_car'/>
    <trip id="lunch_245" depart="43445.00" from="-130503625#0" to="-50831916#1" type='lunch_car'/>
    <trip id="lunch_246" depart="43446.00" from="-54985260#6" to="186475564#3" type='lunch_car'/>
    <trip id="lunch_247" depart="43447.00" from="-88247764#4" to="50831915#4" type='lunch_car'/>
    <trip id="lunch_248" depart="43448.00" from="-25684557#3" to="-54985260#5" type='lunch_car'/>
    <trip id="lunch_249" depart="43449.00" from="49830666#2" to="-170094572#2" type='lunch_car'/>
    <trip id="lunch_250" depart="43450.00" from="-1124346621" to="-25504350#3" type='lunch_car'/>
    <trip id="lunch_251" depart="43451.00" from="192987238#1" to="49830666#4" type='lunch_car'/>
    <trip id="lunch_252" depart="43452.00" from="51095934#4" to="-51095934#4" type='lunch_car'/>
    <trip id="lunch_253" depart="43453.00" from="50831915#2" to="-477271462#3" type='lunch_car'/>
    <trip id="lunch_254" depart="43454.00" from="-477271462#4" to="51095934#8" type='lunch_car'/>
    <trip id="lunch_255" depart="43455.00" from="-622102031#2" to="-88247764#6" type='lunch_car'/>
    <trip id="lunch_256" depart="43456.00" from="51543398#1" to="-50449361#0" type='lunch_car'/>
    <trip id="lunch_257" depart="43457.00" from="-50831915#11" to="829563410#1" type='lunch_car'/>
    <trip id="lunch_258" depart="43458.00" from="-50831914#0" to="-477271462#0" type='lunch_car'/>
    <trip id="lunch_259" depart="43459.00" from="88247764#6" to="-88247764#2" type='lunch_car'/>
    <trip id="lunch_260" depart="43460.00" from="-622102031#2" to="54985260#10" type='lunch_car'/>
    <trip id="lunch_261" depart="43461.00" from="477271462#3" to="829563410#1" type='lunch_car'/>
    <trip id="lunch_262" depart="43462.00" from="622102031#3" to="25684551#1" type='lunch_car'/>
    <trip id="lunch_263" depart="43463.00" from="-186475564#0" to="54985279#3" type='lunch_car'/>
    <trip id="lunch_264" depart="43464.00" from="50449361#4" to="-25684551#3" type='lunch_car'/>
    <trip id="lunch_265" depart="43465.00" from="-170094575#2" to="50449361#2" type='lunch_car'/>
    <trip id="lunch_266" depart="43466.00" from="25684487" to="-477271462#0" type='lunch_car'/>
    <trip id="lunch_267" depart="43467.00" from="-477271462#3" to="622102031#6" type='lunch_car'/>
    <trip id="lunch_268" depart="43468.00" from="88247764#2" to="-1395767648#1" type='lunch_car'/>
    <trip id="lunch_269" depart="43469.00" from="829563410#1" to="277523407#2" type='lunch_car'/>
    <trip id="lunch_270" depart="43470.00" from="580760138#3" to="51095934#10" type='lunch_car'/>
    <trip id="lunch_271" depart="43471.00" from="-51095934#2" to="-620932850#0" type='lunch_car'/>
    <trip id="lunch_272" depart="43472.00" from="-1124346622#0" to="170094575#1" type='lunch_car'/>
    <trip id="lunch_273" depart="43473.00" from="54985260#7" to="53103893#0" type='lunch_car'/>
    <trip id="lunch_274" depart="43474.00" from="1124346621" to="-25684557#4" type='lunch_car'/>
    <trip id="lunch_275" depart="43475.00" from="51095934#0" to="192981424#7" type='lunch_car'/>
    <trip id="lunch_276" depart="43476.00" from="829563410#0" to="1124346622#2" type='lunch_car'/>
    <trip id="lunch_277" depart="43477.00" from="25504350#1" to="25504350#2" type='lunch_car'/>
    <trip id="lunch_278" depart="43478.00" from="620932850#3" to="37177801#3" type='lunch_car'/>
    <trip id="lunch_279" depart="43479.00" from="-53103893#1" to="-51095934#3" type='lunch_car'/>
    <trip id="lunch_280" depart="43480.00" from="-54985260#13" to="51510531#1" type='lunch_car'/>
    <trip id="lunch_281" depart="43481.00" from="170094572#2" to="183263068#1" type='lunch_car'/>
    <trip id="lunch_282" depart="43482.00" from="-186475564#3" to="-51543398#1" type='lunch_car'/>
    <trip id="lunch_283" depart="43483.00" from="-1331576371#1" to="25504350#1" type='lunch_car'/>
    <trip id="lunch_284" depart="43484.00" from="-88247764#1" to="1331576371#1" type='lunch_car'/>
    <trip id="lunch_285" depart="43485.00" from="-25684551#2" to="-25684487" type='lunch_car'/>
    <trip id="lunch_286" depart="43486.00" from="-186475564#0" to="186475564#0" type='lunch_car'/>
    <trip id="lunch_287" depart="43487.00" from="-50831918#1" to="829563410#2" type='lunch_car'/>
    <trip id="lunch_288" depart="43488.00" from="50831915#0" to="-186475564#1" type='lunch_car'/>
    <trip id="lunch_289" depart="43489.00" from="49830666#3" to="-54985260#12" type='lunch_car'/>
    <trip id="lunch_290" depart="43490.00" from="-88247764#6" to="-54985260#4" type='lunch_car'/>
    <trip id="lunch_291" depart="43491.00" from="54985279#2" to="477271462#4" type='lunch_car'/>
    <trip id="lunch_292" depart="43492.00" from="53369130#0" to="-88247764#1" type='lunch_car'/>
    <trip id="lunch_293" depart="43493.00" from="1124346622#0" to="25504350#3" type='lunch_car'/>
    <trip id="lunch_294" depart="43494.00" from="-635143862#1" to="50831918#0" type='lunch_car'/>
    <trip id="lunch_295" depart="43495.00" from="192987238#2" to="25504350#1" type='lunch_car'/>
    <trip id="lunch_296" depart="43496.00" from="1075767203#1" to="-130503625#0" type='lunch_car'/>
    <trip id="lunch_297" depart="43497.00" from="622102031#2" to="-622102031#0" type='lunch_car'/>
    <trip id="lunch_298" depart="43498.00" from="-130503625#2" to="1204274369" type='lunch_car'/>
    <trip id="lunch_299" depart="43499.00" from="-622102031#6" to="50831915#1" type='lunch_car'/>
    <trip id="lunch_300" depart="43500.00" from="-1204274370" to="25504350#6" type='lunch_car'/>