<?xml version="1.0" encoding="UTF-8"?>

<!-- generated on 2026-03-12 22:49:55.019662 by Eclipse SUMO randomTrips.py v1_26_0+0000-fa7df22d7f1
<configuration>
    <net-file value=".\data\networks\city_006.net.xml"/>
    <output-trip-file value=".\data\routes\scenarios_03\midnight.rou.xml"/>
    <prefix value="midnight_"/>
    <trip-attributes value="type='late_evening_car'"/>
    <seed value="2026"/>
    <begin value="79200.0"/>
    <end value="86400.0"/>
    <period value="2.5"/>
</configuration>
-->

<routes xmlns:xsi="http://www.w3.org/2001/XMLSchema-instance" xsi:noNamespaceSchemaLocation="http://sumo.dlr.de/xsd/routes_file.xsd">
    <trip id="midnight_0" depart="79200.00" from="1395767649#0" to="54985260#12" type='late_evening_car'/>
    <trip id="midnight_1" depart="79202.50" from="-25486114#0" to="-50831917" type='late_evening_car'/>
    <trip id="midnight_2" depart="79205.00" from="25486115#1" to="192981424#6" type='late_evening_car'/>
    <trip id="midnight_3" depart="79207.50" from="50831918#0" to="192981424#0" type='late_evening_car'/>
    <trip id="midnight_4" depart="79210.00" from="50449361#1" to="50831918#0" type='late_evening_car'/>
    <trip id="midnight_5" depart="79212.50" from="50831915#0" to="25486115#2" type='late_evening_car'/>
    <trip id="midnight_6" depart="79215.00" from="-50831915#8" to="25684551#3" type='late_evening_car'/>
    <trip id="midnight_7" depart="79217.50" from="-25504350#0" to="51095934#8" type='late_evening_car'/>
    <trip id="midnight_8" depart="79220.00" from="-829563410#2" to="51095934#7" type='late_evening_car'/>
    <trip id="midnight_9" depart="79222.50" from="-50449361#7" to="-51095934#2" type='late_evening_car'/>
    <trip id="midnight_10" depart="79225.00" from="88247764#10" to="622102030#2" type='late_evening_car'/>
    <trip id="midnight_11" depart="79227.50" from="1395767649#0" to="-25486114#0" type='late_evening_car'/>
    <trip id="midnight_12" depart="79230.00" from="-54985260#10" to="192981424#6" type='late_evening_car'/>
    <trip id="midnight_13" depart="79232.50" from="-51095934#4" to="1177906287#0" type='late_evening_car'/>
    <trip id="midnight_14" depart="79235.00" from="54985260#3" to="49830666#4" type='late_evening_car'/>
    <trip id="midnight_15" depart="79237.50" from="49830666#0" to="-580760138#6" type='late_evening_car'/>
    <trip id="midnight_16" depart="79240.00" from="-622102031#2" to="-622102031#7" type='late_evening_car'/>
    <trip id="midnight_17" depart="79242.50" from="192987238#1" to="1395767649#0" type='late_evening_car'/>
    <trip id="midnight_18" depart="79245.00" from="-25504350#2" to="170083666#2" type='late_evening_car'/>
    <trip id="midnight_19" depart="79247.50" from="50831915#0" to="25504350#5" type='late_evening_car'/>
    <trip id="midnight_20" depart="79250.00" from="1124346622#1" to="580760138#6" type='late_evening_car'/>
    <trip id="midnight_21" depart="79252.50" from="-50831919#1" to="-88247764#10" type='late_evening_car'/>
    <trip id="midnight_22" depart="79255.00" from="620932850#1" to="1331576371#1" type='late_evening_car'/>
    <trip id="midnight_23" depart="79257.50" from="-50831915#11" to="-25684557#0" type='late_evening_car'/>
    <trip id="midnight_24" depart="79260.00" from="-1395767647#0" to="49830666#4" type='late_evening_car'/>
    <trip id="midnight_25" depart="79262.50" from="25684487" to="130503625#0" type='late_evening_car'/>
    <trip id="midnight_26" depart="79265.00" from="1075767203#1" to="-51095930#0" type='late_evening_car'/>
    <trip id="midnight_27" depart="79267.50" from="54985260#7" to="25684557#0" type='late_evening_car'/>
    <trip id="midnight_28" depart="79270.00" from="-88247764#1" to="130503625#0" type='late_evening_car'/>
    <trip id="midnight_29" depart="79272.50" from="620932850#3" to="88247764#4" type='late_evening_car'/>
    <trip id="midnight_30" depart="79275.00" from="170590846" to="192981424#7" type='late_evening_car'/>
    <trip id="midnight_31" depart="79277.50" from="277523407#1" to="-54985260#12" type='late_evening_car'/>
    <trip id="midnight_32" depart="79280.00" from="-88247764#9" to="54985260#7" type='late_evening_car'/>
    <trip id="midnight_33" depart="79282.50" from="-622102031#6" to="-53369130#1" type='late_evening_car'/>
    <trip id="midnight_34" depart="79285.00" from="-51095934#0" to="-1395767649#0" type='late_evening_car'/>
    <trip id="midnight_35" depart="79287.50" from="25684557#4" to="25504350#4" type='late_evening_car'/>
    <trip id="midnight_36" depart="79290.00" from="-88247764#1" to="170094575#1" type='late_evening_car'/>
    <trip id="midnight_37" depart="79292.50" from="1124346622#0" to="620932850#1" type='late_evening_car'/>
    <trip id="midnight_38" depart="79295.00" from="1395767648#1" to="51510531#1" type='late_evening_car'/>
    <trip id="midnight_39" depart="79297.50" from="580760138#0" to="52152425#1" type='late_evening_car'/>
    <trip id="midnight_40" depart="79300.00" from="-186475564#3" to="477271462#4" type='late_evening_car'/>
    <trip id="midnight_41" depart="79302.50" from="64973297#1" to="53103893#1" type='late_evening_car'/>
    <trip id="midnight_42" depart="79305.00" from="-88247764#9" to="-183263068#0" type='late_evening_car'/>
    <trip id="midnight_43" depart="79307.50" from="-51095930#2" to="1395767649#0" type='late_evening_car'/>
    <trip id="midnight_44" depart="79310.00" from="-186475564#2" to="50831915#4" type='late_evening_car'/>
    <trip id="midnight_45" depart="79312.50" from="-622102030#1" to="1124346622#0" type='late_evening_car'/>
    <trip id="midnight_46" depart="79315.00" from="-1124346622#2" to="-1075767203#0" type='late_evening_car'/>
    <trip id="midnight_47" depart="79317.50" from="192981425#1" to="622102030#3" type='late_evening_car'/>
    <trip id="midnight_48" depart="79320.00" from="-183263068#0" to="51095934#12" type='late_evening_car'/>
    <trip id="midnight_49" depart="79322.50" from="-50831916#1" to="25684551#6" type='late_evening_car'/>
    <trip id="midnight_50" depart="79325.00" from="50831915#1" to="635143862#0" type='late_evening_car'/>
    <trip id="midnight_51" depart="79327.50" from="277523407#1" to="25684557#4" type='late_evening_car'/>
    <trip id="midnight_52" depart="79330.00" from="192987238#0" to="50831918#0" type='late_evening_car'/>
    <trip id="midnight_53" depart="79332.50" from="622102031#4" to="1395767647#1" type='late_evening_car'/>
    <trip id="midnight_54" depart="79335.00" from="49830666#4" to="-25684557#3" type='late_evening_car'/>
    <trip id="midnight_55" depart="79337.50" from="-50831915#10" to="25504350#0" type='late_evening_car'/>
    <trip id="midnight_56" depart="79340.00" from="622102031#7" to="54985260#4" type='late_evening_car'/>
    <trip id="midnight_57" depart="79342.50" from="277523407#1" to="622102031#0" type='late_evening_car'/>
    <trip id="midnight_58" depart="79345.00" from="50831919#0" to="580760138#6" type='late_evening_car'/>
    <trip id="midnight_59" depart="79347.50" from="-51510530" to="-829563410#1" type='late_evening_car'/>
    <trip id="midnight_60" depart="79350.00" from="-25486115#1" to="54985260#9" type='late_evening_car'/>
    <trip id="midnight_61" depart="79352.50" from="-1395767647#1" to="-54985279#5" type='late_evening_car'/>
    <trip id="midnight_62" depart="79355.00" from="-54985260#16" to="50831918#0" type='late_evening_car'/>
    <trip id="midnight_63" depart="79357.50" from="-53103899" to="-54985260#10" type='late_evening_car'/>
    <trip id="midnight_64" depart="79360.00" from="170083666#1" to="-88247764#7" type='late_evening_car'/>
    <trip id="midnight_65" depart="79362.50" from="-54985260#1" to="25504350#4" type='late_evening_car'/>
    <trip id="midnight_66" depart="79365.00" from="326037133#1" to="-186475564#1" type='late_evening_car'/>
    <trip id="midnight_67" depart="79367.50" from="-580760138#6" to="-50831915#1" type='late_evening_car'/>
    <trip id="midnight_68" depart="79370.00" from="580760138#6" to="-170094572#4" type='late_evening_car'/>
    <trip id="midnight_69" depart="79372.50" from="170590846" to="53103893#0" type='late_evening_car'/>
    <trip id="midnight_70" depart="79375.00" from="-477271462#2" to="49830666#7" type='late_evening_car'/>
    <trip id="midnight_71" depart="79377.50" from="54985260#3" to="-25684557#1" type='late_evening_car'/>
    <trip id="midnight_72" depart="79380.00" from="170094572#3" to="51095934#0" type='late_evening_car'/>
    <trip id="midnight_73" depart="79382.50" from="170083666#0" to="635143862#0" type='late_evening_car'/>
    <trip id="midnight_74" depart="79385.00" from="-25684557#5" to="53103899" type='late_evening_car'/>
    <trip id="midnight_75" depart="79387.50" from="-622102030#2" to="-25486115#0" type='late_evening_car'/>
    <trip id="midnight_76" depart="79390.00" from="-51510530" to="-54985279#4" type='late_evening_car'/>
    <trip id="midnight_77" depart="79392.50" from="-51095930#1" to="1395767648#1" type='late_evening_car'/>
    <trip id="midnight_78" depart="79395.00" from="50831917" to="-88247764#0" type='late_evening_car'/>
    <trip id="midnight_79" depart="79397.50" from="-88247764#4" to="-54985260#6" type='late_evening_car'/>
    <trip id="midnight_80" depart="79400.00" from="51095934#1" to="51095934#13" type='late_evening_car'/>
    <trip id="midnight_81" depart="79402.50" from="51095934#5" to="53369130#1" type='late_evening_car'/>
    <trip id="midnight_82" depart="79405.00" from="-50831915#4" to="626880271#0" type='late_evening_car'/>
    <trip id="midnight_83" depart="79407.50" from="54985260#4" to="277523407#1" type='late_evening_car'/>
    <trip id="midnight_84" depart="79410.00" from="-620932850#3" to="51095930#2" type='late_evening_car'/>
    <trip id="midnight_85" depart="79412.50" from="53369130#0" to="37177801#3" type='late_evening_car'/>
    <trip id="midnight_86" depart="79415.00" from="635143862#0" to="-580760138#1" type='late_evening_car'/>
    <trip id="midnight_87" depart="79417.50" from="-25684557#4" to="192981425#0" type='late_evening_car'/>
    <trip id="midnight_88" depart="79420.00" from="-25486115#2" to="50449361#2" type='late_evening_car'/>
    <trip id="midnight_89" depart="79422.50" from="-50831914#1" to="-53369130#1" type='late_evening_car'/>
    <trip id="midnight_90" depart="79425.00" from="-51095934#0" to="192981424#6" type='late_evening_car'/>
    <trip id="midnight_91" depart="79427.50" from="622102031#6" to="-50449361#0" type='late_evening_car'/>
    <trip id="midnight_92" depart="79430.00" from="49830666#5" to="-50449361#6" type='late_evening_car'/>
    <trip id="midnight_93" depart="79432.50" from="25684551#10" to="170083666#2" type='late_evening_car'/>
    <trip id="midnight_94" depart="79435.00" from="-51095934#12" to="53103882#1" type='late_evening_car'/>
    <trip id="midnight_95" depart="79437.50" from="-51095930#0" to="-183263068#0" type='late_evening_car'/>
    <trip id="midnight_96" depart="79440.00" from="-622102030#1" to="54985279#3" type='late_evening_car'/>
    <trip id="midnight_97" depart="79442.50" from="50831916#1" to="-829563410#2" type='late_evening_car'/>
    <trip id="midnight_98" depart="79445.00" from="-1124346622#2" to="-25504350#3" type='late_evening_car'/>
    <trip id="midnight_99" depart="79447.50" from="622102030#2" to="-580760138#1" type='late_evening_car'/>
    <trip id="midnight_100" depart="79450.00" from="50831917" to="25684551#1" type='late_evening_car'/>
    <trip id="midnight_101" depart="79452.50" from="25684557#4" to="25684551#3" type='late_evening_car'/>
    <trip id="midnight_102" depart="79455.00" from="620932850#1" to="-54985260#2" type='late_evening_car'/>
    <trip id="midnight_103" depart="79457.50" from="88247764#1" to="54985260#5" type='late_evening_car'/>
    <trip id="midnight_104" depart="79460.00" from="326037134#0" to="620932850#2" type='late_evening_car'/>
    <trip id="midnight_105" depart="79462.50" from="-54985260#2" to="50831915#1" type='late_evening_car'/>
    <trip id="midnight_106" depart="79465.00" from="622102031#7" to="51095934#15" type='late_evening_car'/>
    <trip id="midnight_107" depart="79467.50" from="-25504350#5" to="50831918#0" type='late_evening_car'/>
    <trip id="midnight_108" depart="79470.00" from="-53103882#0" to="54985279#5" type='late_evening_car'/>
    <trip id="midnight_109" depart="79472.50" from="170590845" to="-54985279#3" type='late_evening_car'/>
    <trip id="midnight_110" depart="79475.00" from="-25504350#0" to="25684551#5" type='late_evening_car'/>
    <trip id="midnight_111" depart="79477.50" from="-25504350#3" to="-25684551#9" type='late_evening_car'/>
    <trip id="midnight_112" depart="79480.00" from="-54985260#16" to="277523407#2" type='late_evening_car'/>
    <trip id="midnight_113" depart="79482.50" from="25684557#4" to="-1395767648#0" type='late_evening_car'/>
    <trip id="midnight_114" depart="79485.00" from="192981425#0" to="-580760138#3" type='late_evening_car'/>
    <trip id="midnight_115" depart="79487.50" from="-54985279#4" to="-51095934#1" type='late_evening_car'/>
    <trip id="midnight_116" depart="79490.00" from="-622102031#1" to="-50831916#1" type='late_evening_car'/>
    <trip id="midnight_117" depart="79492.50" from="-25504350#6" to="186475564#3" type='late_evening_car'/>
    <trip id="midnight_118" depart="79495.00" from="262767663#1" to="622102031#0" type='late_evening_car'/>
    <trip id="midnight_119" depart="79497.50" from="326037134#1" to="-622102031#6" type='late_evening_car'/>
    <trip id="midnight_120" depart="79500.00" from="-50831918#1" to="-326037134#0" type='late_evening_car'/>
    <trip id="midnight_121" depart="79502.50" from="-1204274369" to="-52152425#0" type='late_evening_car'/>
    <trip id="midnight_122" depart="79505.00" from="192987238#4" to="53103893#0" type='late_evening_car'/>
    <trip id="midnight_123" depart="79507.50" from="183263069#1" to="309448838" type='late_evening_car'/>
    <trip id="midnight_124" depart="79510.00" from="-51095930#2" to="25684557#3" type='late_evening_car'/>
    <trip id="midnight_125" depart="79512.50" from="50831915#10" to="-54985260#2" type='late_evening_car'/>
    <trip id="midnight_126" depart="79515.00" from="25684557#5" to="-1124346622#0" type='late_evening_car'/>
    <trip id="midnight_127" depart="79517.50" from="88247764#1" to="130503625#1" type='late_evening_car'/>
    <trip id="midnight_128" depart="79520.00" from="829563410#1" to="475735005" type='late_evening_car'/>
    <trip id="midnight_129" depart="79522.50" from="54985260#11" to="622102030#1" type='late_evening_car'/>
    <trip id="midnight_130" depart="79525.00" from="580760138#0" to="-622102031#7" type='late_evening_car'/>
    <trip id="midnight_131" depart="79527.50" from="88247764#0" to="622102031#7" type='late_evening_car'/>
    <trip id="midnight_132" depart="79530.00" from="-54985260#12" to="-50831915#3" type='late_evening_car'/>
    <trip id="midnight_133" depart="79532.50" from="-54985260#3" to="25684557#5" type='late_evening_car'/>
    <trip id="midnight_134" depart="79535.00" from="183263068#0" to="130503625#2" type='late_evening_car'/>
    <trip id="midnight_135" depart="79537.50" from="51095930#1" to="25486114#0" type='late_evening_car'/>
    <trip id="midnight_136" depart="79540.00" from="-477271462#2" to="25684557#1" type='late_evening_car'/>
    <trip id="midnight_137" depart="79542.50" from="-25684557#2" to="54985279#1" type='late_evening_car'/>
    <trip id="midnight_138" depart="79545.00" from="622102031#4" to="51095934#7" type='late_evening_car'/>
    <trip id="midnight_139" depart="79547.50" from="-183263068#0" to="-620932850#3" type='late_evening_car'/>
    <trip id="midnight_140" depart="79550.00" from="50449361#1" to="-25684557#4" type='late_evening_car'/>
    <trip id="midnight_141" depart="79552.50" from="50449361#4" to="88247764#9" type='late_evening_car'/>
    <trip id="midnight_142" depart="79555.00" from="-1177906287#0" to="-50831916#0" type='late_evening_car'/>
    <trip id="midnight_143" depart="79557.50" from="53369130#0" to="25486114#1" type='late_evening_car'/>
    <trip id="midnight_144" depart="79560.00" from="-54985279#3" to="64973297#1" type='late_evening_car'/>
    <trip id="midnight_145" depart="79562.50" from="170083666#0" to="277523407#0" type='late_evening_car'/>
    <trip id="midnight_146" depart="79565.00" from="-183263068#1" to="50831914#1" type='late_evening_car'/>
    <trip id="midnight_147" depart="79567.50" from="-53369130#2" to="-51095934#6" type='late_evening_car'/>
    <trip id="midnight_148" depart="79570.00" from="-1395767642" to="25504350#2" type='late_evening_car'/>
    <trip id="midnight_149" depart="79572.50" from="51095930#0" to="-477271462#2" type='late_evening_car'/>
    <trip id="midnight_150" depart="79575.00" from="-51095934#5" to="186475564#2" type='late_evening_car'/>
    <trip id="midnight_151" depart="79577.50" from="-54985260#3" to="87080018" type='late_evening_car'/>
    <trip id="midnight_152" depart="79580.00" from="-477271462#2" to="50831915#4" type='late_evening_car'/>
    <trip id="midnight_153" depart="79582.50" from="-1124346622#0" to="25504350#7" type='late_evening_car'/>
    <trip id="midnight_154" depart="79585.00" from="1075767203#0" to="-88247764#2" type='late_evening_car'/>
    <trip id="midnight_155" depart="79587.50" from="51095934#3" to="54985279#5" type='late_evening_car'/>
    <trip id="midnight_156" depart="79590.00" from="88247764#1" to="88247764#8" type='late_evening_car'/>
    <trip id="midnight_157" depart="79592.50" from="-326037134#1" to="170094573" type='late_evening_car'/>
    <trip id="midnight_158" depart="79595.00" from="-475735004" to="186475564#1" type='late_evening_car'/>
    <trip id="midnight_159" depart="79597.50" from="-326037133#0" to="54985260#9" type='late_evening_car'/>
    <trip id="midnight_160" depart="79600.00" from="1463043806" to="54985260#6" type='late_evening_car'/>
    <trip id="midnight_161" depart="79602.50" from="25684551#9" to="-1075767203#0" type='late_evening_car'/>
    <trip id="midnight_162" depart="79605.00" from="-54985279#0" to="-620932850#1" type='late_evening_car'/>
    <trip id="midnight_163" depart="79607.50" from="25504350#1" to="-25684551#9" type='late_evening_car'/>
    <trip id="midnight_164" depart="79610.00" from="54985260#2" to="50449361#7" type='late_evening_car'/>
    <trip id="midnight_165" depart="79612.50" from="-54985279#3" to="25684551#4" type='late_evening_car'/>
    <trip id="midnight_166" depart="79615.00" from="25684557#1" to="-54985279#5" type='late_evening_car'/>
    <trip id="midnight_167" depart="79617.50" from="326037134#1" to="1124346622#2" type='late_evening_car'/>
    <trip id="midnight_168" depart="79620.00" from="192987238#1" to="-25486115#1" type='late_evening_car'/>
    <trip id="midnight_169" depart="79622.50" from="50831917" to="-25504350#0" type='late_evening_car'/>
    <trip id="midnight_170" depart="79625.00" from="50831915#1" to="-50831919#0" type='late_evening_car'/>
    <trip id="midnight_171" depart="79627.50" from="-53103893#1" to="170083666#2" type='late_evening_car'/>
    <trip id="midnight_172" depart="79630.00" from="49830666#6" to="54985260#11" type='late_evening_car'/>
    <trip id="midnight_173" depart="79632.50" from="-620932850#0" to="-50449361#2" type='late_evening_car'/>
    <trip id="midnight_174" depart="79635.00" from="51095930#0" to="-829563410#0" type='late_evening_car'/>
    <trip id="midnight_175" depart="79637.50" from="-25684557#3" to="50831915#2" type='late_evening_car'/>
    <trip id="midnight_176" depart="79640.00" from="25684557#5" to="-25684557#0" type='late_evening_car'/>
    <trip id="midnight_177" depart="79642.50" from="-51095934#0" to="53103882#0" type='late_evening_car'/>
    <trip id="midnight_178" depart="79645.00" from="-53103882#0" to="53103893#1" type='late_evening_car'/>
    <trip id="midnight_179" depart="79647.50" from="-64973297#1" to="-326037133#1" type='late_evening_car'/>
    <trip id="midnight_180" depart="79650.00" from="25684551#1" to="-51095930#2" type='late_evening_car'/>
    <trip id="midnight_181" depart="79652.50" from="829563410#1" to="192981425#0" type='late_evening_car'/>
    <trip id="midnight_182" depart="79655.00" from="-25504350#5" to="-53369130#1" type='late_evening_car'/>
    <trip id="midnight_183" depart="79657.50" from="-88247764#1" to="-635143862#0" type='late_evening_car'/>
    <trip id="midnight_184" depart="79660.00" from="326037133#1" to="620932850#2" type='late_evening_car'/>
    <trip id="midnight_185" depart="79662.50" from="580760138#1" to="53369130#1" type='late_evening_car'/>
    <trip id="midnight_186" depart="79665.00" from="622102031#5" to="37177801#2" type='late_evening_car'/>
    <trip id="midnight_187" depart="79667.50" from="174648253" to="-50831915#7" type='late_evening_car'/>
    <trip id="midnight_188" depart="79670.00" from="-54985260#15" to="-54985260#8" type='late_evening_car'/>
    <trip id="midnight_189" depart="79672.50" from="620932850#0" to="50449361#6" type='late_evening_car'/>
    <trip id="midnight_190" depart="79675.00" from="-1124346622#0" to="192981424#7" type='late_evening_car'/>
    <trip id="midnight_191" depart="79677.50" from="-50831918#0" to="-54985260#9" type='late_evening_car'/>
    <trip id="midnight_192" depart="79680.00" from="25684551#9" to="-829563410#2" type='late_evening_car'/>
    <trip id="midnight_193" depart="79682.50" from="50831916#1" to="1331576371#0" type='late_evening_car'/>
    <trip id="midnight_194" depart="79685.00" from="54985260#8" to="-54985279#2" type='late_evening_car'/>
    <trip id="midnight_195" depart="79687.50" from="-1331576371#1" to="-50831916#1" type='late_evening_car'/>
    <trip id="midnight_196" depart="79690.00" from="-25504350#4" to="54985260#0" type='late_evening_car'/>
    <trip id="midnight_197" depart="79692.50" from="-51095934#0" to="-130503625#0" type='late_evening_car'/>
    <trip id="midnight_198" depart="79695.00" from="-50449361#6" to="1177906287#0" type='late_evening_car'/>
    <trip id="midnight_199" depart="79697.50" from="-51095934#12" to="25684557#2" type='late_evening_car'/>
    <trip id="midnight_200" depart="79700.00" from="-170094575#2" to="477271462#5" type='late_evening_car'/>
    <trip id="midnight_201" depart="79702.50" from="170094575#2" to="-1124346622#0" type='late_evening_car'/>
    <trip id="midnight_202" depart="79705.00" from="-186475564#2" to="-54985260#8" type='late_evening_car'/>
    <trip id="midnight_203" depart="79707.50" from="-50831915#1" to="1204274369" type='late_evening_car'/>
    <trip id="midnight_204" depart="79710.00" from="25504350#0" to="-50449361#0" type='late_evening_car'/>
    <trip id="midnight_205" depart="79712.50" from="49830666#0" to="477271462#0" type='late_evening_car'/>
    <trip id="midnight_206" depart="79715.00" from="186475564#2" to="-25684551#0" type='late_evening_car'/>
    <trip id="midnight_207" depart="79717.50" from="-51095934#1" to="-88247764#10" type='late_evening_car'/>
    <trip id="midnight_208" depart="79720.00" from="-477271462#1" to="50831915#0" type='late_evening_car'/>
    <trip id="midnight_209" depart="79722.50" from="88247764#5" to="88247764#4" type='late_evening_car'/>
    <trip id="midnight_210" depart="79725.00" from="580760138#2" to="326037134#0" type='late_evening_car'/>
    <trip id="midnight_211" depart="79727.50" from="-54985260#11" to="-54985279#5" type='late_evening_car'/>
    <trip id="midnight_212" depart="79730.00" from="25504350#0" to="-51095934#3" type='late_evening_car'/>
    <trip id="midnight_213" depart="79732.50" from="54985260#6" to="53103893#0" type='late_evening_car'/>
    <trip id="midnight_214" depart="79735.00" from="-1331576371#0" to="1395767647#0" type='late_evening_car'/>
    <trip id="midnight_215" depart="79737.50" from="-50831918#1" to="50831915#7" type='late_evening_car'/>
    <trip id="midnight_216" depart="79740.00" from="-50449361#2" to="-51543398#0" type='late_evening_car'/>
    <trip id="midnight_217" depart="79742.50" from="53103882#0" to="-622102031#7" type='late_evening_car'/>
    <trip id="midnight_218" depart="79745.00" from="-50831915#0" to="-170094575#3" type='late_evening_car'/>
    <trip id="midnight_219" depart="79747.50" from="-622102030#1" to="-183263069#1" type='late_evening_car'/>
    <trip id="midnight_220" depart="79750.00" from="49830666#5" to="326037134#1" type='late_evening_car'/>
    <trip id="midnight_221" depart="79752.50" from="326037134#1" to="50831917" type='late_evening_car'/>
    <trip id="midnight_222" depart="79755.00" from="-51095934#7" to="1395767642" type='late_evening_car'/>
    <trip id="midnight_223" depart="79757.50" from="170083666#2" to="-54985260#6" type='late_evening_car'/>
    <trip id="midnight_224" depart="79760.00" from="-475735005" to="88247764#5" type='late_evening_car'/>
    <trip id="midnight_225" depart="79762.50" from="54985260#11" to="-50449361#1" type='late_evening_car'/>
    <trip id="midnight_226" depart="79765.00" from="-50831919#0" to="622102031#6" type='late_evening_car'/>
    <trip id="midnight_227" depart="79767.50" from="-54985279#4" to="-25684551#0" type='late_evening_car'/>
    <trip id="midnight_228" depart="79770.00" from="25504350#1" to="-50831915#9" type='late_evening_car'/>
    <trip id="midnight_229" depart="79772.50" from="-88247764#3" to="-50831915#6" type='late_evening_car'/>
    <trip id="midnight_230" depart="79775.00" from="1395767648#0" to="170094575#3" type='late_evening_car'/>
    <trip id="midnight_231" depart="79777.50" from="1395767649#0" to="51095934#11" type='late_evening_car'/>
    <trip id="midnight_232" depart="79780.00" from="-51095934#1" to="54985260#3" type='late_evening_car'/>
    <trip id="midnight_233" depart="79782.50" from="1124346622#0" to="192981424#7" type='late_evening_car'/>
    <trip id="midnight_234" depart="79785.00" from="88247764#8" to="-622102031#4" type='late_evening_car'/>
    <trip id="midnight_235" depart="79787.50" from="-25684557#1" to="192981424#2" type='late_evening_car'/>
    <trip id="midnight_236" depart="79790.00" from="88247764#10" to="50831914#0" type='late_evening_car'/>
    <trip id="midnight_237" depart="79792.50" from="-25684551#1" to="51095934#8" type='late_evening_car'/>
    <trip id="midnight_238" depart="79795.00" from="25684557#5" to="-174648253" type='late_evening_car'/>
    <trip id="midnight_239" depart="79797.50" from="277523407#0" to="-1395767649#0" type='late_evening_car'/>
    <trip id="midnight_240" depart="79800.00" from="51095930#1" to="622102031#3" type='late_evening_car'/>
    <trip id="midnight_241" depart="79802.50" from="170094575#3" to="-580760138#3" type='late_evening_car'/>
    <trip id="midnight_242" depart="79805.00" from="-88247764#1" to="-50449361#6" type='late_evening_car'/>
    <trip id="midnight_243" depart="79807.50" from="-1395767648#0" to="-50449361#6" type='late_evening_car'/>
    <trip id="midnight_244" depart="79810.00" from="1124346622#0" to="186475564#4" type='late_evening_car'/>
    <trip id="midnight_245" depart="79812.50" from="-130503625#0" to="-50831916#1" type='late_evening_car'/>
    <trip id="midnight_246" depart="79815.00" from="-54985260#6" to="186475564#3" type='late_evening_car'/>
    <trip id="midnight_247" depart="79817.50" from="-88247764#4" to="50831915#4" type='late_evening_car'/>
    <trip id="midnight_248" depart="79820.00" from="-25684557#3" to="-54985260#5" type='late_evening_car'/>
    <trip id="midnight_249" depart="79822.50" from="49830666#2" to="-170094572#2" type='late_evening_car'/>
    <trip id="midnight_250" depart="79825.00" from="-1124346621" to="-25504350#3" type='late_evening_car'/>
    <trip id="midnight_251" depart="79827.50" from="192987238#1" to="49830666#4" type='late_evening_car'/>
    <trip id="midnight_252" depart="79830.00" from="51095934#4" to="-51095934#4" type='late_evening_car'/>
    <trip id="midnight_253" depart="79832.50" from="50831915#2" to="-477271462#3" type='late_evening_car'/>
    <trip id="midnight_254" depart="79835.00" from="-477271462#4" to="51095934#8" type='late_evening_car'/>
    <trip id="midnight_255" depart="79837.50" from="-622102031#2" to="-88247764#6" type='late_evening_car'/>
    <trip id="midnight_256" depart="79840.00" from="51543398#1" to="-50449361#0" type='late_evening_car'/>
    <trip id="midnight_257" depart="79842.50" from="-50831915#11" to="829563410#1" type='late_evening_car'/>
    <trip id="midnight_258" depart="79845.00" from="-50831914#0" to="-477271462#0" type='late_evening_car'/>
    <trip id="midnight_259" depart="79847.50" from="88247764#6" to="-88247764#2" type='late_evening_car'/>
    <trip id="midnight_260" depart="79850.00" from="-622102031#2" to="54985260#10" type='late_evening_car'/>
    <trip id="midnight_261" depart="79852.50" from="477271462#3" to="829563410#1" type='late_evening_car'/>
    <trip id="midnight_262" depart="79855.00" from="622102031#3" to="25684551#1" type='late_evening_car'/>
    <trip id="midnight_263" depart="79857.50" from="-186475564#0" to="54985279#3" type='late_evening_car'/>
    <trip id="midnight_264" depart="79860.00" from="50449361#4" to="-25684551#3" type='late_evening_car'/>
    <trip id="midnight_265" depart="79862.50" from="-170094575#2" to="50449361#2" type='late_evening_car'/>
    <trip id="midnight_266" depart="79865.00" from="25684487" to="-477271462#0" type='late_evening_car'/>
    <trip id="midnight_267" depart="79867.50" from="-477271462#3" to="622102031#6" type='late_evening_car'/>
    <trip id="midnight_268" depart="79870.00" from="88247764#2" to="-1395767648#1" type='late_evening_car'/>
    <trip id="midnight_269" depart="79872.50" from="829563410#1" to="277523407#2" type='late_evening_car'/>
    <trip id="midnight_270" depart="79875.00" from="580760138#3" to="51095934#10" type='late_evening_car'/>
    <trip id="midnight_271" depart="79877.50" from="-51095934#2" to="-620932850#0" type='late_evening_car'/>
    <trip id="midnight_272" depart="79880.00" from="-1124346622#0" to="170094575#1" type='late_evening_car'/>