<?xml version="1.0" encoding="UTF-8"?>

<!-- generated on 2026-03-13 00:07:26.941029 by Eclipse SUMO randomTrips.py v1_26_0+0000-fa7df22d7f1
<configuration>
    <net-file value=".\data\networks\city_006.net.xml"/>
    <output-trip-file value=".\data\routes\scenarios_03\morning_peak.rou.xml"/>
    <prefix value="morning_peak_"/>
    <trip-attributes value="type='morning_peak_car'"/>
    <fringe-factor value="30"/>
    <seed value="2026"/>
    <begin value="25200.0"/>
    <end value="32400.0"/>
    <period value="0.8"/>
    <binomial value="5"/>
</configuration>
-->

<routes xmlns:xsi="http://www.w3.org/2001/XMLSchema-instance" xsi:noNamespaceSchemaLocation="http://sumo.dlr.de/xsd/routes_file.xsd">
    <trip id="morning_peak_0" depart="25201.00" from="-53103882#1" to="1395767646" type='morning_peak_car'/>
    <trip id="morning_peak_1" depart="25201.00" from="-170094573" to="192981424#2" type='morning_peak_car'/>
    <trip id="morning_peak_2" depart="25202.00" from="1101990250" to="-25486505" type='morning_peak_car'/>
    <trip id="morning_peak_3" depart="25202.00" from="-186475564#4" to="87080018" type='morning_peak_car'/>
    <trip id="morning_peak_4" depart="25203.00" from="-475735004" to="170094573" type='morning_peak_car'/>
    <trip id="morning_peak_5" depart="25203.00" from="192981424#4" to="1124346622#2" type='morning_peak_car'/>
    <trip id="morning_peak_6" depart="25203.00" from="-53103899" to="50449361#7" type='morning_peak_car'/>
    <trip id="morning_peak_7" depart="25203.00" from="-170094573" to="-25684487" type='morning_peak_car'/>
    <trip id="morning_peak_8" depart="25204.00" from="174648253" to="53103882#1" type='morning_peak_car'/>
    <trip id="morning_peak_9" depart="25204.00" from="1395767649#0" to="1395767642" type='morning_peak_car'/>
    <trip id="morning_peak_10" depart="25205.00" from="170094572#3" to="186475564#4" type='morning_peak_car'/>
    <trip id="morning_peak_11" depart="25206.00" from="170590846" to="50831918#1" type='morning_peak_car'/>
    <trip id="morning_peak_12" depart="25206.00" from="-25486114#1" to="1395767646" type='morning_peak_car'/>
    <trip id="morning_peak_13" depart="25207.00" from="25684551#0" to="-52152425#0" type='morning_peak_car'/>
    <trip id="morning_peak_14" depart="25208.00" from="-25684551#6" to="186475564#1" type='morning_peak_car'/>
    <trip id="morning_peak_15" depart="25208.00" from="-170094573" to="186475564#4" type='morning_peak_car'/>
    <trip id="morning_peak_16" depart="25209.00" from="-1101990231" to="-25486115#0" type='morning_peak_car'/>
    <trip id="morning_peak_17" depart="25209.00" from="-475735004" to="1101990231" type='morning_peak_car'/>
    <trip id="morning_peak_18" depart="25210.00" from="-53103899" to="-622102031#6" type='morning_peak_car'/>
    <trip id="morning_peak_19" depart="25211.00" from="-53103899" to="130503625#1" type='morning_peak_car'/>
    <trip id="morning_peak_20" depart="25211.00" from="-50831917" to="-50449361#0" type='morning_peak_car'/>
    <trip id="morning_peak_21" depart="25212.00" from="-54985260#6" to="51095934#7" type='morning_peak_car'/>
    <trip id="morning_peak_22" depart="25213.00" from="192981424#4" to="53103882#1" type='morning_peak_car'/>
    <trip id="morning_peak_23" depart="25213.00" from="-54985260#16" to="50831918#1" type='morning_peak_car'/>
    <trip id="morning_peak_24" depart="25213.00" from="-25684551#6" to="1101990231" type='morning_peak_car'/>
    <trip id="morning_peak_25" depart="25215.00" from="25684551#0" to="50831918#1" type='morning_peak_car'/>
    <trip id="morning_peak_26" depart="25217.00" from="580760138#0" to="53103882#1" type='morning_peak_car'/>
    <trip id="morning_peak_27" depart="25218.00" from="-635143862#1" to="183263068#1" type='morning_peak_car'/>
    <trip id="morning_peak_28" depart="25218.00" from="192981424#4" to="170094573" type='morning_peak_car'/>
    <trip id="morning_peak_29" depart="25218.00" from="-25504350#7" to="-53369130#0" type='morning_peak_car'/>
    <trip id="morning_peak_30" depart="25219.00" from="-25486114#1" to="626880271#1" type='morning_peak_car'/>
    <trip id="morning_peak_31" depart="25221.00" from="170590846" to="50449361#7" type='morning_peak_car'/>
    <trip id="morning_peak_32" depart="25222.00" from="1463043806" to="1395767646" type='morning_peak_car'/>
    <trip id="morning_peak_33" depart="25223.00" from="-50831918#1" to="53103899" type='morning_peak_car'/>
    <trip id="morning_peak_34" depart="25225.00" from="-130503625#1" to="-1463043806" type='morning_peak_car'/>
    <trip id="morning_peak_35" depart="25226.00" from="170590846" to="183263068#1" type='morning_peak_car'/>
    <trip id="morning_peak_36" depart="25226.00" from="-51510530" to="87080018" type='morning_peak_car'/>
    <trip id="morning_peak_37" depart="25227.00" from="174648253" to="-580760138#0" type='morning_peak_car'/>
    <trip id="morning_peak_38" depart="25227.00" from="25684487" to="-622102030#0" type='morning_peak_car'/>
    <trip id="morning_peak_39" depart="25228.00" from="130503625#1" to="-25486505" type='morning_peak_car'/>
    <trip id="morning_peak_40" depart="25228.00" from="-475735005" to="25504350#7" type='morning_peak_car'/>
    <trip id="morning_peak_41" depart="25230.00" from="-829563410#1" to="1124346622#2" type='morning_peak_car'/>
    <trip id="morning_peak_42" depart="25231.00" from="-54985260#3" to="25684551#6" type='morning_peak_car'/>
    <trip id="morning_peak_43" depart="25231.00" from="-1124346622#2" to="-54985260#10" type='morning_peak_car'/>
    <trip id="morning_peak_44" depart="25232.00" from="622102030#0" to="1395767642" type='morning_peak_car'/>
    <trip id="morning_peak_45" depart="25233.00" from="262767663#0" to="1101990231" type='morning_peak_car'/>
    <trip id="morning_peak_46" depart="25235.00" from="-50449361#4" to="25486114#1" type='morning_peak_car'/>
    <trip id="morning_peak_47" depart="25235.00" from="1463043806" to="-25684551#0" type='morning_peak_car'/>
    <trip id="morning_peak_48" depart="25238.00" from="-50449361#7" to="475735004" type='morning_peak_car'/>
    <trip id="morning_peak_49" depart="25238.00" from="25486115#0" to="88247764#7" type='morning_peak_car'/>
    <trip id="morning_peak_50" depart="25241.00" from="-170094573" to="51510530" type='morning_peak_car'/>
    <trip id="morning_peak_51" depart="25242.00" from="-53103899" to="-174648253" type='morning_peak_car'/>
    <trip id="morning_peak_52" depart="25242.00" from="-25504350#7" to="1395767649#1" type='morning_peak_car'/>
    <trip id="morning_peak_53" depart="25242.00" from="25486115#2" to="-1101990250" type='morning_peak_car'/>
    <trip id="morning_peak_54" depart="25242.00" from="-53103899" to="-25684557#3" type='morning_peak_car'/>
    <trip id="morning_peak_55" depart="25244.00" from="-50449361#7" to="1124346622#2" type='morning_peak_car'/>
    <trip id="morning_peak_56" depart="25245.00" from="-53103899" to="51095934#15" type='morning_peak_car'/>
    <trip id="morning_peak_57" depart="25245.00" from="25684487" to="-174648253" type='morning_peak_car'/>
    <trip id="morning_peak_58" depart="25245.00" from="25486115#0" to="25504350#7" type='morning_peak_car'/>
    <trip id="morning_peak_59" depart="25246.00" from="-25486114#1" to="51095934#15" type='morning_peak_car'/>
    <trip id="morning_peak_60" depart="25246.00" from="1463043806" to="-51543398#0" type='morning_peak_car'/>
    <trip id="morning_peak_61" depart="25247.00" from="-25504350#7" to="133453038" type='morning_peak_car'/>
    <trip id="morning_peak_62" depart="25247.00" from="192981424#4" to="25684551#6" type='morning_peak_car'/>
    <trip id="morning_peak_63" depart="25248.00" from="-475735004" to="-829563410#0" type='morning_peak_car'/>
    <trip id="morning_peak_64" depart="25249.00" from="-622102031#5" to="-52152425#0" type='morning_peak_car'/>
    <trip id="morning_peak_65" depart="25249.00" from="-170094573" to="-25486505" type='morning_peak_car'/>
    <trip id="morning_peak_66" depart="25250.00" from="174648253" to="1395767649#1" type='morning_peak_car'/>
    <trip id="morning_peak_67" depart="25251.00" from="-1204274370" to="-64973297#1" type='morning_peak_car'/>
    <trip id="morning_peak_68" depart="25252.00" from="-51510530" to="192981424#2" type='morning_peak_car'/>
    <trip id="morning_peak_69" depart="25252.00" from="-25684551#6" to="183263068#1" type='morning_peak_car'/>
    <trip id="morning_peak_70" depart="25256.00" from="-25486114#1" to="1204274370" type='morning_peak_car'/>
    <trip id="morning_peak_71" depart="25257.00" from="25486115#0" to="87080018" type='morning_peak_car'/>
    <trip id="morning_peak_72" depart="25257.00" from="-53103882#1" to="-1395767648#1" type='morning_peak_car'/>
    <trip id="morning_peak_73" depart="25259.00" from="-25486114#1" to="51510530" type='morning_peak_car'/>
    <trip id="morning_peak_74" depart="25260.00" from="192981424#4" to="25684551#5" type='morning_peak_car'/>
    <trip id="morning_peak_75" depart="25260.00" from="-53103899" to="1395767647#1" type='morning_peak_car'/>
    <trip id="morning_peak_76" depart="25261.00" from="622102031#4" to="51510531#1" type='morning_peak_car'/>
    <trip id="morning_peak_77" depart="25261.00" from="-186475564#4" to="626880271#1" type='morning_peak_car'/>
    <trip id="morning_peak_78" depart="25264.00" from="1101990250" to="-50831919#0" type='morning_peak_car'/>
    <trip id="morning_peak_79" depart="25265.00" from="-53103899" to="1395767647#1" type='morning_peak_car'/>
    <trip id="morning_peak_80" depart="25265.00" from="25684551#9" to="25504350#7" type='morning_peak_car'/>
    <trip id="morning_peak_81" depart="25266.00" from="170590845" to="-1463043806" type='morning_peak_car'/>
    <trip id="morning_peak_82" depart="25267.00" from="-25486114#1" to="1395767649#1" type='morning_peak_car'/>
    <trip id="morning_peak_83" depart="25268.00" from="-170094573" to="1124346622#2" type='morning_peak_car'/>
    <trip id="morning_peak_84" depart="25268.00" from="-377148615#1" to="377148615#1" type='morning_peak_car'/>
    <trip id="morning_peak_85" depart="25268.00" from="-1101990231" to="-25486115#0" type='morning_peak_car'/>
    <trip id="morning_peak_86" depart="25270.00" from="-1395767648#0" to="51095930#1" type='morning_peak_car'/>
    <trip id="morning_peak_87" depart="25272.00" from="-170094573" to="635143862#1" type='morning_peak_car'/>
    <trip id="morning_peak_88" depart="25272.00" from="51543398#0" to="49830666#3" type='morning_peak_car'/>
    <trip id="morning_peak_89" depart="25273.00" from="-1204274369" to="377148615#1" type='morning_peak_car'/>
    <trip id="morning_peak_90" depart="25274.00" from="-1395767646" to="25504350#4" type='morning_peak_car'/>
    <trip id="morning_peak_91" depart="25275.00" from="54985279#4" to="87080018" type='morning_peak_car'/>
    <trip id="morning_peak_92" depart="25275.00" from="622102030#0" to="25504350#7" type='morning_peak_car'/>
    <trip id="morning_peak_93" depart="25275.00" from="-53103899" to="53103882#1" type='morning_peak_car'/>
    <trip id="morning_peak_94" depart="25276.00" from="25684551#0" to="170094573" type='morning_peak_car'/>
    <trip id="morning_peak_95" depart="25276.00" from="-25486114#1" to="-1463043806" type='morning_peak_car'/>
    <trip id="morning_peak_96" depart="25276.00" from="53369130#0" to="170094575#1" type='morning_peak_car'/>
    <trip id="morning_peak_97" depart="25277.00" from="51543398#0" to="-25684487" type='morning_peak_car'/>
    <trip id="morning_peak_98" depart="25277.00" from="-1204274370" to="1395767649#1" type='morning_peak_car'/>
    <trip id="morning_peak_99" depart="25278.00" from="1101990250" to="-25486505" type='morning_peak_car'/>
    <trip id="morning_peak_100" depart="25278.00" from="54985260#9" to="1177906287#1" type='morning_peak_car'/>
    <trip id="morning_peak_101" depart="25279.00" from="-51510530" to="-25684487" type='morning_peak_car'/>
    <trip id="morning_peak_102" depart="25280.00" from="-53103899" to="-53369130#0" type='morning_peak_car'/>
    <trip id="morning_peak_103" depart="25281.00" from="1101990250" to="1395767647#1" type='morning_peak_car'/>
    <trip id="morning_peak_104" depart="25281.00" from="-50449361#7" to="-51095934#0" type='morning_peak_car'/>
    <trip id="morning_peak_105" depart="25281.00" from="-1395767646" to="1204274369" type='morning_peak_car'/>
    <trip id="morning_peak_106" depart="25281.00" from="-1331576371#1" to="87080018" type='morning_peak_car'/>
    <trip id="morning_peak_107" depart="25282.00" from="-1395767649#1" to="-53369130#0" type='morning_peak_car'/>
    <trip id="morning_peak_108" depart="25286.00" from="-1395767646" to="54985260#16" type='morning_peak_car'/>
    <trip id="morning_peak_109" depart="25286.00" from="580760138#0" to="829563410#2" type='morning_peak_car'/>
    <trip id="morning_peak_110" depart="25286.00" from="-1204274370" to="25504350#7" type='morning_peak_car'/>
    <trip id="morning_peak_111" depart="25287.00" from="1124346622#1" to="-170590845" type='morning_peak_car'/>
    <trip id="morning_peak_112" depart="25288.00" from="-475735004" to="1395767649#1" type='morning_peak_car'/>
    <trip id="morning_peak_113" depart="25289.00" from="-1101990231" to="1177906287#1" type='morning_peak_car'/>
    <trip id="morning_peak_114" depart="25289.00" from="170590846" to="-25684557#1" type='morning_peak_car'/>
    <trip id="morning_peak_115" depart="25290.00" from="-622102031#5" to="1395767646" type='morning_peak_car'/>
    <trip id="morning_peak_116" depart="25291.00" from="-1204274370" to="1101990231" type='morning_peak_car'/>
    <trip id="morning_peak_117" depart="25291.00" from="54985260#13" to="51510531#1" type='morning_peak_car'/>
    <trip id="morning_peak_118" depart="25292.00" from="-1101990231" to="1177906287#1" type='morning_peak_car'/>
    <trip id="morning_peak_119" depart="25293.00" from="-50831915#0" to="-52152425#0" type='morning_peak_car'/>
    <trip id="morning_peak_120" depart="25294.00" from="-51510530" to="622102031#3" type='morning_peak_car'/>
    <trip id="morning_peak_121" depart="25294.00" from="-133453038" to="192981424#2" type='morning_peak_car'/>
    <trip id="morning_peak_122" depart="25295.00" from="1463043806" to="-1101990250" type='morning_peak_car'/>
    <trip id="morning_peak_123" depart="25295.00" from="262767663#0" to="1331576371#1" type='morning_peak_car'/>
    <trip id="morning_peak_124" depart="25296.00" from="-50831915#11" to="-53369130#0" type='morning_peak_car'/>
    <trip id="morning_peak_125" depart="25297.00" from="1101990250" to="-1463043806" type='morning_peak_car'/>
    <trip id="morning_peak_126" depart="25297.00" from="174648253" to="377148615#1" type='morning_peak_car'/>
    <trip id="morning_peak_127" depart="25298.00" from="-1331576371#1" to="1177906287#1" type='morning_peak_car'/>
    <trip id="morning_peak_128" depart="25299.00" from="-53103899" to="-1463043806" type='morning_peak_car'/>
    <trip id="morning_peak_129" depart="25299.00" from="-1395767646" to="1204274370" type='morning_peak_car'/>
    <trip id="morning_peak_130" depart="25300.00" from="-25684551#6" to="-1463043806" type='morning_peak_car'/>
    <trip id="morning_peak_131" depart="25301.00" from="-50831919#1" to="1204274370" type='morning_peak_car'/>
    <trip id="morning_peak_132" depart="25302.00" from="-183263068#1" to="-25684551#8" type='morning_peak_car'/>
    <trip id="morning_peak_133" depart="25304.00" from="-1124346622#2" to="-174648253" type='morning_peak_car'/>
    <trip id="morning_peak_134" depart="25304.00" from="-170094573" to="-25486505" type='morning_peak_car'/>
    <trip id="morning_peak_135" depart="25305.00" from="-1204274369" to="1101990231" type='morning_peak_car'/>
    <trip id="morning_peak_136" depart="25305.00" from="1463043806" to="-25486115#0" type='morning_peak_car'/>
    <trip id="morning_peak_137" depart="25305.00" from="25684557#4" to="53103882#1" type='morning_peak_car'/>
    <trip id="morning_peak_138" depart="25306.00" from="-475735004" to="-25684551#0" type='morning_peak_car'/>
    <trip id="morning_peak_139" depart="25306.00" from="88247764#6" to="50831918#1" type='morning_peak_car'/>
    <trip id="morning_peak_140" depart="25308.00" from="170590846" to="1204274370" type='morning_peak_car'/>
    <trip id="morning_peak_141" depart="25308.00" from="-51510531#1" to="50449361#7" type='morning_peak_car'/>
    <trip id="morning_peak_142" depart="25310.00" from="192981424#4" to="1395767647#1" type='morning_peak_car'/>
    <trip id="morning_peak_143" depart="25314.00" from="50449361#0" to="192981424#2" type='morning_peak_car'/>
    <trip id="morning_peak_144" depart="25315.00" from="-50831919#1" to="-1463043806" type='morning_peak_car'/>
    <trip id="morning_peak_145" depart="25316.00" from="53369130#0" to="475735004" type='morning_peak_car'/>
    <trip id="morning_peak_146" depart="25316.00" from="-50449361#7" to="51095934#15" type='morning_peak_car'/>
    <trip id="morning_peak_147" depart="25316.00" from="-170094573" to="-174648253" type='morning_peak_car'/>
    <trip id="morning_peak_148" depart="25317.00" from="1101990250" to="1395767647#1" type='morning_peak_car'/>
    <trip id="morning_peak_149" depart="25318.00" from="-50831919#1" to="-25486505" type='morning_peak_car'/>
    <trip id="morning_peak_150" depart="25319.00" from="622102030#0" to="170094573" type='morning_peak_car'/>
    <trip id="morning_peak_151" depart="25319.00" from="25684487" to="-580760138#0" type='morning_peak_car'/>
    <trip id="morning_peak_152" depart="25320.00" from="170083666#0" to="87080018" type='morning_peak_car'/>
    <trip id="morning_peak_153" depart="25321.00" from="-50831915#8" to="-170590845" type='morning_peak_car'/>
    <trip id="morning_peak_154" depart="25322.00" from="-326037134#0" to="50831915#11" type='morning_peak_car'/>
    <trip id="morning_peak_155" depart="25323.00" from="-1331576371#1" to="1395767642" type='morning_peak_car'/>
    <trip id="morning_peak_156" depart="25325.00" from="-50831915#11" to="-174648253" type='morning_peak_car'/>
    <trip id="morning_peak_157" depart="25327.00" from="-475735004" to="-25486115#0" type='morning_peak_car'/>
    <trip id="morning_peak_158" depart="25329.00" from="-54985260#4" to="37177801#3" type='morning_peak_car'/>
    <trip id="morning_peak_159" depart="25330.00" from="-51095934#6" to="53103893#0" type='morning_peak_car'/>
    <trip id="morning_peak_160" depart="25331.00" from="-133453038" to="635143862#1" type='morning_peak_car'/>
    <trip id="morning_peak_161" depart="25334.00" from="-25684551#9" to="-580760138#0" type='morning_peak_car'/>
    <trip id="morning_peak_162" depart="25335.00" from="622102030#0" to="-50449361#0" type='morning_peak_car'/>
    <trip id="morning_peak_163" depart="25335.00" from="170083666#0" to="53103882#0" type='morning_peak_car'/>
    <trip id="morning_peak_164" depart="25336.00" from="53369130#2" to="170094573" type='morning_peak_car'/>
    <trip id="morning_peak_165" depart="25337.00" from="-88247764#7" to="1395767642" type='morning_peak_car'/>
    <trip id="morning_peak_166" depart="25339.00" from="-170094575#0" to="-50831915#1" type='morning_peak_car'/>
    <trip id="morning_peak_167" depart="25339.00" from="25486115#0" to="1395767647#1" type='morning_peak_car'/>
    <trip id="morning_peak_168" depart="25340.00" from="-50831914#0" to="1124346622#2" type='morning_peak_car'/>
    <trip id="morning_peak_169" depart="25340.00" from="-54985260#4" to="186475564#4" type='morning_peak_car'/>
    <trip id="morning_peak_170" depart="25341.00" from="-1395767649#1" to="-53369130#0" type='morning_peak_car'/>
    <trip id="morning_peak_171" depart="25342.00" from="-1395767647#1" to="475735004" type='morning_peak_car'/>
    <trip id="morning_peak_172" depart="25342.00" from="-25684551#6" to="1204274369" type='morning_peak_car'/>
    <trip id="morning_peak_173" depart="25343.00" from="-25486114#1" to="635143862#1" type='morning_peak_car'/>
    <trip id="morning_peak_174" depart="25345.00" from="-1177906287#1" to="51095934#15" type='morning_peak_car'/>
    <trip id="morning_peak_175" depart="25345.00" from="170590846" to="-25486505" type='morning_peak_car'/>
    <trip id="morning_peak_176" depart="25346.00" from="50449361#2" to="-52152425#0" type='morning_peak_car'/>
    <trip id="morning_peak_177" depart="25346.00" from="1101990250" to="-53369130#0" type='morning_peak_car'/>
    <trip id="morning_peak_178" depart="25346.00" from="580760138#0" to="192981425#0" type='morning_peak_car'/>
    <trip id="morning_peak_179" depart="25348.00" from="-622102031#5" to="-170590846" type='morning_peak_car'/>
    <trip id="morning_peak_180" depart="25349.00" from="-25684551#6" to="-25684487" type='morning_peak_car'/>
    <trip id="morning_peak_181" depart="25349.00" from="-51095934#3" to="-50449361#0" type='morning_peak_car'/>
    <trip id="morning_peak_182" depart="25349.00" from="-50831919#1" to="377148615#1" type='morning_peak_car'/>
    <trip id="morning_peak_183" depart="25350.00" from="-1204274370" to="-1101990250" type='morning_peak_car'/>
    <trip id="morning_peak_184" depart="25351.00" from="-53103899" to="626880271#1" type='morning_peak_car'/>
    <trip id="morning_peak_185" depart="25351.00" from="-25684551#6" to="25486114#1" type='morning_peak_car'/>
    <trip id="morning_peak_186" depart="25352.00" from="-1101990231" to="-25684551#8" type='morning_peak_car'/>
    <trip id="morning_peak_187" depart="25353.00" from="-51095934#15" to="-174648253" type='morning_peak_car'/>
    <trip id="morning_peak_188" depart="25354.00" from="88247764#6" to="1204274370" type='morning_peak_car'/>
    <trip id="morning_peak_189" depart="25355.00" from="174648253" to="50831916#0" type='morning_peak_car'/>
    <trip id="morning_peak_190" depart="25355.00" from="-475735004" to="1395767646" type='morning_peak_car'/>
    <trip id="morning_peak_191" depart="25355.00" from="49830666#5" to="-170590846" type='morning_peak_car'/>
    <trip id="morning_peak_192" depart="25356.00" from="-53103882#1" to="51095934#8" type='morning_peak_car'/>
    <trip id="morning_peak_193" depart="25357.00" from="-50831919#1" to="1124346622#2" type='morning_peak_car'/>
    <trip id="morning_peak_194" depart="25358.00" from="-50831915#4" to="635143862#1" type='morning_peak_car'/>
    <trip id="morning_peak_195" depart="25358.00" from="-53103882#1" to="50831918#1" type='morning_peak_car'/>
    <trip id="morning_peak_196" depart="25359.00" from="-54985279#4" to="-186475564#2" type='morning_peak_car'/>
    <trip id="morning_peak_197" depart="25360.00" from="-25486114#1" to="50831919#1" type='morning_peak_car'/>
    <trip id="morning_peak_198" depart="25361.00" from="-1124346622#2" to="25684551#2" type='morning_peak_car'/>
    <trip id="morning_peak_199" depart="25361.00" from="25486115#0" to="377148615#1" type='morning_peak_car'/>
    <trip id="morning_peak_200" depart="25362.00" from="192981424#4" to="-25684551#0" type='morning_peak_car'/>
    <trip id="morning_peak_201" depart="25363.00" from="25486115#2" to="-25684487" type='morning_peak_car'/>
    <trip id="morning_peak_202" depart="25364.00" from="-170094573" to="1395767642" type='morning_peak_car'/>
    <trip id="morning_peak_203" depart="25364.00" from="622102030#2" to="186475564#4" type='morning_peak_car'/>
    <trip id="morning_peak_204" depart="25365.00" from="-133453038" to="-25486505" type='morning_peak_car'/>
    <trip id="morning_peak_205" depart="25365.00" from="-1331576371#1" to="-51543398#0" type='morning_peak_car'/>
    <trip id="morning_peak_206" depart="25366.00" from="-53103899" to="-25486115#0" type='morning_peak_car'/>
    <trip id="morning_peak_207" depart="25367.00" from="-1204274370" to="1395767648#0" type='morning_peak_car'/>
    <trip id="morning_peak_208" depart="25367.00" from="-1177906287#1" to="-25684551#8" type='morning_peak_car'/>
    <trip id="morning_peak_209" depart="25368.00" from="-50831918#1" to="50831915#1" type='morning_peak_car'/>
    <trip id="morning_peak_210" depart="25368.00" from="50831914#1" to="50449361#7" type='morning_peak_car'/>
    <trip id="morning_peak_211" depart="25369.00" from="25486114#0" to="87080018" type='morning_peak_car'/>
    <trip id="morning_peak_212" depart="25370.00" from="-1395767649#1" to="53103882#1" type='morning_peak_car'/>
    <trip id="morning_peak_213" depart="25370.00" from="192981424#4" to="53103882#1" type='morning_peak_car'/>
    <trip id="morning_peak_214" depart="25371.00" from="1463043806" to="-170590846" type='morning_peak_car'/>
    <trip id="morning_peak_215" depart="25372.00" from="-50831915#11" to="-170094575#3" type='morning_peak_car'/>
    <trip id="morning_peak_216" depart="25372.00" from="-475735004" to="-25684551#0" type='morning_peak_car'/>
    <trip id="morning_peak_217" depart="25373.00" from="-50449361#7" to="377148615#1" type='morning_peak_car'/>
    <trip id="morning_peak_218" depart="25373.00" from="-54985260#16" to="-25684487" type='morning_peak_car'/>
    <trip id="morning_peak_219" depart="25375.00" from="-170094573" to="1395767646" type='morning_peak_car'/>
    <trip id="morning_peak_220" depart="25375.00" from="-170094575#3" to="50831918#1" type='morning_peak_car'/>
    <trip id="morning_peak_221" depart="25375.00" from="-1395767646" to="-51095930#1" type='morning_peak_car'/>
    <trip id="morning_peak_222" depart="25376.00" from="-25684551#6" to="-25684551#8" type='morning_peak_car'/>
    <trip id="morning_peak_223" depart="25376.00" from="183263068#0" to="192981424#2" type='morning_peak_car'/>
    <trip id="morning_peak_224" depart="25376.00" from="262767663#0" to="54985260#16" type='morning_peak_car'/>
    <trip id="morning_peak_225" depart="25377.00" from="-170094575#3" to="475735004" type='morning_peak_car'/>
    <trip id="morning_peak_226" depart="25377.00" from="-1395767649#1" to="133453038" type='morning_peak_car'/>
    <trip id="morning_peak_227" depart="25378.00" from="1463043806" to="54985260#16" type='morning_peak_car'/>
    <trip id="morning_peak_228" depart="25378.00" from="-183263069#1" to="-25684557#1" type='morning_peak_car'/>
    <trip id="morning_peak_229" depart="25379.00" from="-475735004" to="1395767646" type='morning_peak_car'/>
    <trip id="morning_peak_230" depart="25379.00" from="-635143862#1" to="-25684551#8" type='morning_peak_car'/>
    <trip id="morning_peak_231" depart="25379.00" from="-1395767647#1" to="183263068#1" type='morning_peak_car'/>
    <trip id="morning_peak_232" depart="25380.00" from="52152425#0" to="377148615#1" type='morning_peak_car'/>
    <trip id="morning_peak_233" depart="25380.00" from="-1124346622#2" to="183263068#1" type='morning_peak_car'/>
    <trip id="morning_peak_234" depart="25381.00" from="1124346622#1" to="-53369130#0" type='morning_peak_car'/>
    <trip id="morning_peak_235" depart="25382.00" from="-53103882#1" to="-25684551#0" type='morning_peak_car'/>
    <trip id="morning_peak_236" depart="25383.00" from="-51510530" to="1331576371#1" type='morning_peak_car'/>
    <trip id="morning_peak_237" depart="25384.00" from="-1395767649#1" to="1204274370" type='morning_peak_car'/>
    <trip id="morning_peak_238" depart="25385.00" from="-1204274370" to="1177906287#1" type='morning_peak_car'/>
    <trip id="morning_peak_239" depart="25385.00" from="-475735004" to="-25684551#8" type='morning_peak_car'/>
    <trip id="morning_peak_240" depart="25385.00" from="25684487" to="-25684551#8" type='morning_peak_car'/>
    <trip id="morning_peak_241" depart="25386.00" from="-50831915#11" to="-622102030#0" type='morning_peak_car'/>
    <trip id="morning_peak_242" depart="25386.00" from="-1331576371#0" to="37177801#3" type='morning_peak_car'/>
    <trip id="morning_peak_243" depart="25388.00" from="50449361#0" to="-174648253" type='morning_peak_car'/>
    <trip id="morning_peak_244" depart="25388.00" from="1463043806" to="377148615#1" type='morning_peak_car'/>
    <trip id="morning_peak_245" depart="25389.00" from="25684551#8" to="-170590846" type='morning_peak_car'/>
    <trip id="morning_peak_246" depart="25389.00" from="-1331576371#1" to="1124346622#1" type='morning_peak_car'/>
    <trip id="morning_peak_247" depart="25391.00" from="1463043806" to="-25684487" type='morning_peak_car'/>
    <trip id="morning_peak_248" depart="25391.00" from="170590845" to="1101990231" type='morning_peak_car'/>
    <trip id="morning_peak_249" depart="25392.00" from="-1204274369" to="-580760138#0" type='morning_peak_car'/>
    <trip id="morning_peak_250" depart="25393.00" from="1463043806" to="-51095930#0" type='morning_peak_car'/>
    <trip id="morning_peak_251" depart="25396.00" from="-51510530" to="-53369130#0" type='morning_peak_car'/>
    <trip id="morning_peak_252" depart="25396.00" from="-53103899" to="635143862#1" type='morning_peak_car'/>
    <trip id="morning_peak_253" depart="25398.00" from="-53103882#1" to="1124346622#2" type='morning_peak_car'/>
    <trip id="morning_peak_254" depart="25402.00" from="170083666#0" to="25504350#7" type='morning_peak_car'/>
    <trip id="morning_peak_255" depart="25402.00" from="-25684551#6" to="-50831915#2" type='morning_peak_car'/>
    <trip id="morning_peak_256" depart="25403.00" from="1101990250" to="54985260#16" type='morning_peak_car'/>
    <trip id="morning_peak_257" depart="25404.00" from="-1124346622#2" to="-53369130#0" type='morning_peak_car'/>
    <trip id="morning_peak_258" depart="25405.00" from="-50831919#1" to="-170590846" type='morning_peak_car'/>
    <trip id="morning_peak_259" depart="25406.00" from="622102030#0" to="-50449361#0" type='morning_peak_car'/>
    <trip id="morning_peak_260" depart="25406.00" from="-53103882#1" to="635143862#1" type='morning_peak_car'/>
    <trip id="morning_peak_261" depart="25406.00" from="622102030#0" to="51095934#15" type='morning_peak_car'/>
    <trip id="morning_peak_262" depart="25410.00" from="-51510531#1" to="1395767647#1" type='morning_peak_car'/>
    <trip id="morning_peak_263" depart="25410.00" from="-50449361#7" to="635143862#1" type='morning_peak_car'/>