<?xml version="1.0" encoding="UTF-8"?>

<!-- generated on 2026-03-12 22:49:33.576781 by Eclipse SUMO randomTrips.py v1_26_0+0000-fa7df22d7f1
<configuration>
    <net-file value=".\data\networks\city_006.net.xml"/>
    <output-trip-file value=".\data\routes\scenarios_03\night.rou.xml"/>
    <prefix value="night_"/>
    <trip-attributes value="type='night_car'"/>
    <seed value="2026"/>
    <end value="18000.0"/>
    <period value="3.0"/>
</configuration>
-->

<routes xmlns:xsi="http://www.w3.org/2001/XMLSchema-instance" xsi:noNamespaceSchemaLocation="http://sumo.dlr.de/xsd/routes_file.xsd">
    <trip id="night_0" depart="0.00" from="1395767649#0" to="54985260#12" type='night_car'/>
    <trip id="night_1" depart="3.00" from="-25486114#0" to="-50831917" type='night_car'/>
    <trip id="night_2" depart="6.00" from="25486115#1" to="192981424#6" type='night_car'/>
    <trip id="night_3" depart="9.00" from="50831918#0" to="192981424#0" type='night_car'/>
    <trip id="night_4" depart="12.00" from="50449361#1" to="50831918#0" type='night_car'/>
    <trip id="night_5" depart="15.00" from="50831915#0" to="25486115#2" type='night_car'/>
    <trip id="night_6" depart="18.00" from="-50831915#8" to="25684551#3" type='night_car'/>
    <trip id="night_7" depart="21.00" from="-25504350#0" to="51095934#8" type='night_car'/>
    <trip id="night_8" depart="24.00" from="-829563410#2" to="51095934#7" type='night_car'/>
    <trip id="night_9" depart="27.00" from="-50449361#7" to="-51095934#2" type='night_car'/>
    <trip id="night_10" depart="30.00" from="88247764#10" to="622102030#2" type='night_car'/>
    <trip id="night_11" depart="33.00" from="1395767649#0" to="-25486114#0" type='night_car'/>
    <trip id="night_12" depart="36.00" from="-54985260#10" to="192981424#6" type='night_car'/>
    <trip id="night_13" depart="39.00" from="-51095934#4" to="1177906287#0" type='night_car'/>
    <trip id="night_14" depart="42.00" from="54985260#3" to="49830666#4" type='night_car'/>
    <trip id="night_15" depart="45.00" from="49830666#0" to="-580760138#6" type='night_car'/>
    <trip id="night_16" depart="48.00" from="-622102031#2" to="-622102031#7" type='night_car'/>
    <trip id="night_17" depart="51.00" from="192987238#1" to="1395767649#0" type='night_car'/>
    <trip id="night_18" depart="54.00" from="-25504350#2" to="170083666#2" type='night_car'/>
    <trip id="night_19" depart="57.00" from="50831915#0" to="25504350#5" type='night_car'/>
    <trip id="night_20" depart="60.00" from="1124346622#1" to="580760138#6" type='night_car'/>
    <trip id="night_21" depart="63.00" from="-50831919#1" to="-88247764#10" type='night_car'/>
    <trip id="night_22" depart="66.00" from="620932850#1" to="1331576371#1" type='night_car'/>
    <trip id="night_23" depart="69.00" from="-50831915#11" to="-25684557#0" type='night_car'/>
    <trip id="night_24" depart="72.00" from="-1395767647#0" to="49830666#4" type='night_car'/>
    <trip id="night_25" depart="75.00" from="25684487" to="130503625#0" type='night_car'/>
    <trip id="night_26" depart="78.00" from="1075767203#1" to="-51095930#0" type='night_car'/>
    <trip id="night_27" depart="81.00" from="54985260#7" to="25684557#0" type='night_car'/>
    <trip id="night_28" depart="84.00" from="-88247764#1" to="130503625#0" type='night_car'/>
    <trip id="night_29" depart="87.00" from="620932850#3" to="88247764#4" type='night_car'/>
    <trip id="night_30" depart="90.00" from="170590846" to="192981424#7" type='night_car'/>
    <trip id="night_31" depart="93.00" from="277523407#1" to="-54985260#12" type='night_car'/>
    <trip id="night_32" depart="96.00" from="-88247764#9" to="54985260#7" type='night_car'/>
    <trip id="night_33" depart="99.00" from="-622102031#6" to="-53369130#1" type='night_car'/>
    <trip id="night_34" depart="102.00" from="-51095934#0" to="-1395767649#0" type='night_car'/>
    <trip id="night_35" depart="105.00" from="25684557#4" to="25504350#4" type='night_car'/>
    <trip id="night_36" depart="108.00" from="-88247764#1" to="170094575#1" type='night_car'/>
    <trip id="night_37" depart="111.00" from="1124346622#0" to="620932850#1" type='night_car'/>
    <trip id="night_38" depart="114.00" from="1395767648#1" to="51510531#1" type='night_car'/>
    <trip id="night_39" depart="117.00" from="580760138#0" to="52152425#1" type='night_car'/>
    <trip id="night_40" depart="120.00" from="-186475564#3" to="477271462#4" type='night_car'/>
    <trip id="night_41" depart="123.00" from="64973297#1" to="53103893#1" type='night_car'/>
    <trip id="night_42" depart="126.00" from="-88247764#9" to="-183263068#0" type='night_car'/>
    <trip id="night_43" depart="129.00" from="-51095930#2" to="1395767649#0" type='night_car'/>
    <trip id="night_44" depart="132.00" from="-186475564#2" to="50831915#4" type='night_car'/>
    <trip id="night_45" depart="135.00" from="-622102030#1" to="1124346622#0" type='night_car'/>
    <trip id="night_46" depart="138.00" from="-1124346622#2" to="-1075767203#0" type='night_car'/>
    <trip id="night_47" depart="141.00" from="192981425#1" to="622102030#3" type='night_car'/>
    <trip id="night_48" depart="144.00" from="-183263068#0" to="51095934#12" type='night_car'/>
    <trip id="night_49" depart="147.00" from="-50831916#1" to="25684551#6" type='night_car'/>
    <trip id="night_50" depart="150.00" from="50831915#1" to="635143862#0" type='night_car'/>
    <trip id="night_51" depart="153.00" from="277523407#1" to="25684557#4" type='night_car'/>
    <trip id="night_52" depart="156.00" from="192987238#0" to="50831918#0" type='night_car'/>
    <trip id="night_53" depart="159.00" from="622102031#4" to="1395767647#1" type='night_car'/>
    <trip id="night_54" depart="162.00" from="49830666#4" to="-25684557#3" type='night_car'/>
    <trip id="night_55" depart="165.00" from="-50831915#10" to="25504350#0" type='night_car'/>
    <trip id="night_56" depart="168.00" from="622102031#7" to="54985260#4" type='night_car'/>
    <trip id="night_57" depart="171.00" from="277523407#1" to="622102031#0" type='night_car'/>
    <trip id="night_58" depart="174.00" from="50831919#0" to="580760138#6" type='night_car'/>
    <trip id="night_59" depart="177.00" from="-51510530" to="-829563410#1" type='night_car'/>
    <trip id="night_60" depart="180.00" from="-25486115#1" to="54985260#9" type='night_car'/>
    <trip id="night_61" depart="183.00" from="-1395767647#1" to="-54985279#5" type='night_car'/>
    <trip id="night_62" depart="186.00" from="-54985260#16" to="50831918#0" type='night_car'/>
    <trip id="night_63" depart="189.00" from="-53103899" to="-54985260#10" type='night_car'/>
    <trip id="night_64" depart="192.00" from="170083666#1" to="-88247764#7" type='night_car'/>
    <trip id="night_65" depart="195.00" from="-54985260#1" to="25504350#4" type='night_car'/>
    <trip id="night_66" depart="198.00" from="326037133#1" to="-186475564#1" type='night_car'/>
    <trip id="night_67" depart="201.00" from="-580760138#6" to="-50831915#1" type='night_car'/>
    <trip id="night_68" depart="204.00" from="580760138#6" to="-170094572#4" type='night_car'/>
    <trip id="night_69" depart="207.00" from="170590846" to="53103893#0" type='night_car'/>
    <trip id="night_70" depart="210.00" from="-477271462#2" to="49830666#7" type='night_car'/>
    <trip id="night_71" depart="213.00" from="54985260#3" to="-25684557#1" type='night_car'/>
    <trip id="night_72" depart="216.00" from="170094572#3" to="51095934#0" type='night_car'/>
    <trip id="night_73" depart="219.00" from="170083666#0" to="635143862#0" type='night_car'/>
    <trip id="night_74" depart="222.00" from="-25684557#5" to="53103899" type='night_car'/>
    <trip id="night_75" depart="225.00" from="-622102030#2" to="-25486115#0" type='night_car'/>
    <trip id="night_76" depart="228.00" from="-51510530" to="-54985279#4" type='night_car'/>
    <trip id="night_77" depart="231.00" from="-51095930#1" to="1395767648#1" type='night_car'/>
    <trip id="night_78" depart="234.00" from="50831917" to="-88247764#0" type='night_car'/>
    <trip id="night_79" depart="237.00" from="-88247764#4" to="-54985260#6" type='night_car'/>
    <trip id="night_80" depart="240.00" from="51095934#1" to="51095934#13" type='night_car'/>
    <trip id="night_81" depart="243.00" from="51095934#5" to="53369130#1" type='night_car'/>
    <trip id="night_82" depart="246.00" from="-50831915#4" to="626880271#0" type='night_car'/>
    <trip id="night_83" depart="249.00" from="54985260#4" to="277523407#1" type='night_car'/>
    <trip id="night_84" depart="252.00" from="-620932850#3" to="51095930#2" type='night_car'/>
    <trip id="night_85" depart="255.00" from="53369130#0" to="37177801#3" type='night_car'/>
    <trip id="night_86" depart="258.00" from="635143862#0" to="-580760138#1" type='night_car'/>
    <trip id="night_87" depart="261.00" from="-25684557#4" to="192981425#0" type='night_car'/>
    <trip id="night_88" depart="264.00" from="-25486115#2" to="50449361#2" type='night_car'/>
    <trip id="night_89" depart="267.00" from="-50831914#1" to="-53369130#1" type='night_car'/>
    <trip id="night_90" depart="270.00" from="-51095934#0" to="192981424#6" type='night_car'/>
    <trip id="night_91" depart="273.00" from="622102031#6" to="-50449361#0" type='night_car'/>
    <trip id="night_92" depart="276.00" from="49830666#5" to="-50449361#6" type='night_car'/>
    <trip id="night_93" depart="279.00" from="25684551#10" to="170083666#2" type='night_car'/>
    <trip id="night_94" depart="282.00" from="-51095934#12" to="53103882#1" type='night_car'/>
    <trip id="night_95" depart="285.00" from="-51095930#0" to="-183263068#0" type='night_car'/>
    <trip id="night_96" depart="288.00" from="-622102030#1" to="54985279#3" type='night_car'/>
    <trip id="night_97" depart="291.00" from="50831916#1" to="-829563410#2" type='night_car'/>
    <trip id="night_98" depart="294.00" from="-1124346622#2" to="-25504350#3" type='night_car'/>
    <trip id="night_99" depart="297.00" from="622102030#2" to="-580760138#1" type='night_car'/>
    <trip id="night_100" depart="300.00" from="50831917" to="25684551#1" type='night_car'/>
    <trip id="night_101" depart="303.00" from="25684557#4" to="25684551#3" type='night_car'/>
    <trip id="night_102" depart="306.00" from="620932850#1" to="-54985260#2" type='night_car'/>
    <trip id="night_103" depart="309.00" from="88247764#1" to="54985260#5" type='night_car'/>
    <trip id="night_104" depart="312.00" from="326037134#0" to="620932850#2" type='night_car'/>
    <trip id="night_105" depart="315.00" from="-54985260#2" to="50831915#1" type='night_car'/>
    <trip id="night_106" depart="318.00" from="622102031#7" to="51095934#15" type='night_car'/>
    <trip id="night_107" depart="321.00" from="-25504350#5" to="50831918#0" type='night_car'/>
    <trip id="night_108" depart="324.00" from="-53103882#0" to="54985279#5" type='night_car'/>
    <trip id="night_109" depart="327.00" from="170590845" to="-54985279#3" type='night_car'/>
    <trip id="night_110" depart="330.00" from="-25504350#0" to="25684551#5" type='night_car'/>
    <trip id="night_111" depart="333.00" from="-25504350#3" to="-25684551#9" type='night_car'/>
    <trip id="night_112" depart="336.00" from="-54985260#16" to="277523407#2" type='night_car'/>
    <trip id="night_113" depart="339.00" from="25684557#4" to="-1395767648#0" type='night_car'/>
    <trip id="night_114" depart="342.00" from="192981425#0" to="-580760138#3" type='night_car'/>
    <trip id="night_115" depart="345.00" from="-54985279#4" to="-51095934#1" type='night_car'/>
    <trip id="night_116" depart="348.00" from="-622102031#1" to="-50831916#1" type='night_car'/>
    <trip id="night_117" depart="351.00" from="-25504350#6" to="186475564#3" type='night_car'/>
    <trip id="night_118" depart="354.00" from="262767663#1" to="622102031#0" type='night_car'/>
    <trip id="night_119" depart="357.00" from="326037134#1" to="-622102031#6" type='night_car'/>
    <trip id="night_120" depart="360.00" from="-50831918#1" to="-326037134#0" type='night_car'/>
    <trip id="night_121" depart="363.00" from="-1204274369" to="-52152425#0" type='night_car'/>
    <trip id="night_122" depart="366.00" from="192987238#4" to="53103893#0" type='night_car'/>
    <trip id="night_123" depart="369.00" from="183263069#1" to="309448838" type='night_car'/>
    <trip id="night_124" depart="372.00" from="-51095930#2" to="25684557#3" type='night_car'/>
    <trip id="night_125" depart="375.00" from="50831915#10" to="-54985260#2" type='night_car'/>
    <trip id="night_126" depart="378.00" from="25684557#5" to="-1124346622#0" type='night_car'/>
    <trip id="night_127" depart="381.00" from="88247764#1" to="130503625#1" type='night_car'/>
    <trip id="night_128" depart="384.00" from="829563410#1" to="475735005" type='night_car'/>
    <trip id="night_129" depart="387.00" from="54985260#11" to="622102030#1" type='night_car'/>
    <trip id="night_130" depart="390.00" from="580760138#0" to="-622102031#7" type='night_car'/>
    <trip id="night_131" depart="393.00" from="88247764#0" to="622102031#7" type='night_car'/>
    <trip id="night_132" depart="396.00" from="-54985260#12" to="-50831915#3" type='night_car'/>
    <trip id="night_133" depart="399.00" from="-54985260#3" to="25684557#5" type='night_car'/>
    <trip id="night_134" depart="402.00" from="183263068#0" to="130503625#2" type='night_car'/>
    <trip id="night_135" depart="405.00" from="51095930#1" to="25486114#0" type='night_car'/>
    <trip id="night_136" depart="408.00" from="-477271462#2" to="25684557#1" type='night_car'/>
    <trip id="night_137" depart="411.00" from="-25684557#2" to="54985279#1" type='night_car'/>
    <trip id="night_138" depart="414.00" from="622102031#4" to="51095934#7" type='night_car'/>
    <trip id="night_139" depart="417.00" from="-183263068#0" to="-620932850#3" type='night_car'/>
    <trip id="night_140" depart="420.00" from="50449361#1" to="-25684557#4" type='night_car'/>
    <trip id="night_141" depart="423.00" from="50449361#4" to="88247764#9" type='night_car'/>
    <trip id="night_142" depart="426.00" from="-1177906287#0" to="-50831916#0" type='night_car'/>
    <trip id="night_143" depart="429.00" from="53369130#0" to="25486114#1" type='night_car'/>
    <trip id="night_144" depart="432.00" from="-54985279#3" to="64973297#1" type='night_car'/>
    <trip id="night_145" depart="435.00" from="170083666#0" to="277523407#0" type='night_car'/>
    <trip id="night_146" depart="438.00" from="-183263068#1" to="50831914#1" type='night_car'/>
    <trip id="night_147" depart="441.00" from="-53369130#2" to="-51095934#6" type='night_car'/>
    <trip id="night_148" depart="444.00" from="-1395767642" to="25504350#2" type='night_car'/>
    <trip id="night_149" depart="447.00" from="51095930#0" to="-477271462#2" type='night_car'/>
    <trip id="night_150" depart="450.00" from="-51095934#5" to="186475564#2" type='night_car'/>
    <trip id="night_151" depart="453.00" from="-54985260#3" to="87080018" type='night_car'/>
    <trip id="night_152" depart="456.00" from="-477271462#2" to="50831915#4" type='night_car'/>
    <trip id="night_153" depart="459.00" from="-1124346622#0" to="25504350#7" type='night_car'/>
    <trip id="night_154" depart="462.00" from="1075767203#0" to="-88247764#2" type='night_car'/>
    <trip id="night_155" depart="465.00" from="51095934#3" to="54985279#5" type='night_car'/>
    <trip id="night_156" depart="468.00" from="88247764#1" to="88247764#8" type='night_car'/>
    <trip id="night_157" depart="471.00" from="-326037134#1" to="170094573" type='night_car'/>
    <trip id="night_158" depart="474.00" from="-475735004" to="186475564#1" type='night_car'/>
    <trip id="night_159" depart="477.00" from="-326037133#0" to="54985260#9" type='night_car'/>
    <trip id="night_160" depart="480.00" from="1463043806" to="54985260#6" type='night_car'/>
    <trip id="night_161" depart="483.00" from="25684551#9" to="-1075767203#0" type='night_car'/>
    <trip id="night_162" depart="486.00" from="-54985279#0" to="-620932850#1" type='night_car'/>
    <trip id="night_163" depart="489.00" from="25504350#1" to="-25684551#9" type='night_car'/>
    <trip id="night_164" depart="492.00" from="54985260#2" to="50449361#7" type='night_car'/>
    <trip id="night_165" depart="495.00" from="-54985279#3" to="25684551#4" type='night_car'/>
    <trip id="night_166" depart="498.00" from="25684557#1" to="-54985279#5" type='night_car'/>
    <trip id="night_167" depart="501.00" from="326037134#1" to="1124346622#2" type='night_car'/>
    <trip id="night_168" depart="504.00" from="192987238#1" to="-25486115#1" type='night_car'/>
    <trip id="night_169" depart="507.00" from="50831917" to="-25504350#0" type='night_car'/>
    <trip id="night_170" depart="510.00" from="50831915#1" to="-50831919#0" type='night_car'/>
    <trip id="night_171" depart="513.00" from="-53103893#1" to="170083666#2" type='night_car'/>
    <trip id="night_172" depart="516.00" from="49830666#6" to="54985260#11" type='night_car'/>
    <trip id="night_173" depart="519.00" from="-620932850#0" to="-50449361#2" type='night_car'/>
    <trip id="night_174" depart="522.00" from="51095930#0" to="-829563410#0" type='night_car'/>
    <trip id="night_175" depart="525.00" from="-25684557#3" to="50831915#2" type='night_car'/>
    <trip id="night_176" depart="528.00" from="25684557#5" to="-25684557#0" type='night_car'/>
    <trip id="night_177" depart="531.00" from="-51095934#0" to="53103882#0" type='night_car'/>
    <trip id="night_178" depart="534.00" from="-53103882#0" to="53103893#1" type='night_car'/>
    <trip id="night_179" depart="537.00" from="-64973297#1" to="-326037133#1" type='night_car'/>
    <trip id="night_180" depart="540.00" from="25684551#1" to="-51095930#2" type='night_car'/>
    <trip id="night_181" depart="543.00" from="829563410#1" to="192981425#0" type='night_car'/>
    <trip id="night_182" depart="546.00" from="-25504350#5" to="-53369130#1" type='night_car'/>
    <trip id="night_183" depart="549.00" from="-88247764#1" to="-635143862#0" type='night_car'/>
    <trip id="night_184" depart="552.00" from="326037133#1" to="620932850#2" type='night_car'/>
    <trip id="night_185" depart="555.00" from="580760138#1" to="53369130#1" type='night_car'/>
    <trip id="night_186" depart="558.00" from="622102031#5" to="37177801#2" type='night_car'/>
    <trip id="night_187" depart="561.00" from="174648253" to="-50831915#7" type='night_car'/>
    <trip id="night_188" depart="564.00" from="-54985260#15" to="-54985260#8" type='night_car'/>
    <trip id="night_189" depart="567.00" from="620932850#0" to="50449361#6" type='night_car'/>
    <trip id="night_190" depart="570.00" from="-1124346622#0" to="192981424#7" type='night_car'/>
    <trip id="night_191" depart="573.00" from="-50831918#0" to="-54985260#9" type='night_car'/>
    <trip id="night_192" depart="576.00" from="25684551#9" to="-829563410#2" type='night_car'/>
    <trip id="night_193" depart="579.00" from="50831916#1" to="1331576371#0" type='night_car'/>
    <trip id="night_194" depart="582.00" from="54985260#8" to="-54985279#2" type='night_car'/>
    <trip id="night_195" depart="585.00" from="-1331576371#1" to="-50831916#1" type='night_car'/>
    <trip id="night_196" depart="588.00" from="-25504350#4" to="54985260#0" type='night_car'/>
    <trip id="night_197" depart="591.00" from="-51095934#0" to="-130503625#0" type='night_car'/>
    <trip id="night_198" depart="594.00" from="-50449361#6" to="1177906287#0" type='night_car'/>
    <trip id="night_199" depart="597.00" from="-51095934#12" to="25684557#2" type='night_car'/>
    <trip id="night_200" depart="600.00" from="-170094575#2" to="477271462#5" type='night_car'/>
    <trip id="night_201" depart="603.00" from="170094575#2" to="-1124346622#0" type='night_car'/>
    <trip id="night_202" depart="606.00" from="-186475564#2" to="-54985260#8" type='night_car'/>
    <trip id="night_203" depart="609.00" from="-50831915#1" to="1204274369" type='night_car'/>
    <trip id="night_204" depart="612.00" from="25504350#0" to="-50449361#0" type='night_car'/>
    <trip id="night_205" depart="615.00" from="49830666#0" to="477271462#0" type='night_car'/>
    <trip id="night_206" depart="618.00" from="186475564#2" to="-25684551#0" type='night_car'/>
    <trip id="night_207" depart="621.00" from="-51095934#1" to="-88247764#10" type='night_car'/>
    <trip id="night_208" depart="624.00" from="-477271462#1" to="50831915#0" type='night_car'/>
    <trip id="night_209" depart="627.00" from="88247764#5" to="88247764#4" type='night_car'/>
    <trip id="night_210" depart="630.00" from="580760138#2" to="326037134#0" type='night_car'/>
    <trip id="night_211" depart="633.00" from="-54985260#11" to="-54985279#5" type='night_car'/>
    <trip id="night_212" depart="636.00" from="25504350#0" to="-51095934#3" type='night_car'/>
    <trip id="night_213" depart="639.00" from="54985260#6" to="53103893#0" type='night_car'/>
    <trip id="night_214" depart="642.00" from="-1331576371#0" to="1395767647#0" type='night_car'/>
    <trip id="night_215" depart="645.00" from="-50831918#1" to="50831915#7" type='night_car'/>
    <trip id="night_216" depart="648.00" from="-50449361#2" to="-51543398#0" type='night_car'/>
    <trip id="night_217" depart="651.00" from="53103882#0" to="-622102031#7" type='night_car'/>
    <trip id="night_218" depart="654.00" from="-50831915#0" to="-170094575#3" type='night_car'/>
    <trip id="night_219" depart="657.00" from="-622102030#1" to="-183263069#1" type='night_car'/>
    <trip id="night_220" depart="660.00" from="49830666#5" to="326037134#1" type='night_car'/>
    <trip id="night_221" depart="663.00" from="326037134#1" to="50831917" type='night_car'/>
    <trip id="night_222" depart="666.00" from="-51095934#7" to="1395767642" type='night_car'/>
    <trip id="night_223" depart="669.00" from="170083666#2" to="-54985260#6" type='night_car'/>
    <trip id="night_224" depart="672.00" from="-475735005" to="88247764#5" type='night_car'/>
    <trip id="night_225" depart="675.00" from="54985260#11" to="-50449361#1" type='night_car'/>
    <trip id="night_226" depart="678.00" from="-50831919#0" to="622102031#6" type='night_car'/>
    <trip id="night_227" depart="681.00" from="-54985279#4" to="-25684551#0" type='night_car'/>
    <trip id="night_228" depart="684.00" from="25504350#1" to="-50831915#9" type='night_car'/>
    <trip id="night_229" depart="687.00" from="-88247764#3" to="-50831915#6" type='night_car'/>
    <trip id="night_230" depart="690.00" from="1395767648#0" to="170094575#3" type='night_car'/>
    <trip id="night_231" depart="693.00" from="1395767649#0" to="51095934#11" type='night_car'/>
    <trip id="night_232" depart="696.00" from="-51095934#1" to="54985260#3" type='night_car'/>
    <trip id="night_233" depart="699.00" from="1124346622#0" to="192981424#7" type='night_car'/>
    <trip id="night_234" depart="702.00" from="88247764#8" to="-622102031#4" type='night_car'/>
    <trip id="night_235" depart="705.00" from="-25684557#1" to="192981424#2" type='night_car'/>
    <trip id="night_236" depart="708.00" from="88247764#10" to="50831914#0" type='night_car'/>
    <trip id="night_237" depart="711.00" from="-25684551#1" to="51095934#8" type='night_car'/>
    <trip id="night_238" depart="714.00" from="25684557#5" to="-174648253" type='night_car'/>
    <trip id="night_239" depart="717.00" from="277523407#0" to="-1395767649#0" type='night_car'/>
    <trip id="night_240" depart="720.00" from="51095930#1" to="622102031#3" type='night_car'/>
    <trip id="night_241" depart="723.00" from="170094575#3" to="-580760138#3" type='night_car'/>
    <trip id="night_242" depart="726.00" from="-88247764#1" to="-50449361#6" type='night_car'/>
    <trip id="night_243" depart="729.00" from="-1395767648#0" to="-50449361#6" type='night_car'/>
    <trip id="night_244" depart="732.00" from="1124346622#0" to="186475564#4" type='night_car'/>
    <trip id="night_245" depart="735.00" from="-130503625#0" to="-50831916#1" type='night_car'/>
    <trip id="night_246" depart="738.00" from="-54985260#6" to="186475564#3" type='night_car'/>
    <trip id="night_247" depart="741.00" from="-88247764#4" to="50831915#4" type='night_car'/>
    <trip id="night_248" depart="744.00" from="-25684557#3" to="-54985260#5" type='night_car'/>
    <trip id="night_249" depart="747.00" from="49830666#2" to="-170094572#2" type='night_car'/>
    <trip id="night_250" depart="750.00" from="-1124346621" to="-25504350#3" type='night_car'/>
    <trip id="night_251" depart="753.00" from="192987238#1" to="49830666#4" type='night_car'/>
    <trip id="night_252" depart="756.00" from="51095934#4" to="-51095934#4" type='night_car'/>
    <trip id="night_253" depart="759.00" from="50831915#2" to="-477271462#3" type='night_car'/>
    <trip id="night_254" depart="762.00" from="-477271462#4" to="51095934#8" type='night_car'/>
    <trip id="night_255" depart="765.00" from="-622102031#2" to="-88247764#6" type='night_car'/>
    <trip id="night_256" depart="768.00" from="51543398#1" to="-50449361#0" type='night_car'/>
    <trip id="night_257" depart="771.00" from="-50831915#11" to="829563410#1" type='night_car'/>
    <trip id="night_258" depart="774.00" from="-50831914#0" to="-477271462#0" type='night_car'/>
    <trip id="night_259" depart="777.00" from="88247764#6" to="-88247764#2" type='night_car'/>
    <trip id="night_260" depart="780.00" from="-622102031#2" to="54985260#10" type='night_car'/>
    <trip id="night_261" depart="783.00" from="477271462#3" to="829563410#1" type='night_car'/>
    <trip id="night_262" depart="786.00" from="622102031#3" to="25684551#1" type='night_car'/>
    <trip id="night_263" depart="789.00" from="-186475564#0" to="54985279#3" type='night_car'/>
    <trip id="night_264" depart="792.00" from="50449361#4" to="-25684551#3" type='night_car'/>
    <trip id="night_265" depart="795.00" from="-170094575#2" to="50449361#2" type='night_car'/>
    <trip id="night_266" depart="798.00" from="25684487" to="-477271462#0" type='night_car'/>
    <trip id="night_267" depart="801.00" from="-477271462#3" to="622102031#6" type='night_car'/>
    <trip id="night_268" depart="804.00" from="88247764#2" to="-1395767648#1" type='night_car'/>
    <trip id="night_269" depart="807.00" from="829563410#1" to="277523407#2" type='night_car'/>
    <trip id="night_270" depart="810.00" from="580760138#3" to="51095934#10" type='night_car'/>
    <trip id="night_271" depart="813.00" from="-51095934#2" to="-620932850#0" type='night_car'/>
    <trip id="night_272" depart="816.00" from="-1124346622#0" to="170094575#1" type='night_car'/>
    <trip id="night_273" depart="819.00" from="54985260#7" to="53103893#0" type='night_car'/>
    <trip id="night_274" depart="822.00" from="1124346621" to="-25684557#4" type='night_car'/>
    <trip id="night_275" depart="825.00" from="51095934#0" to="192981424#7" type='night_car'/>
    <trip id="night_276" depart="828.00" from="829563410#0" to="1124346622#2" type='night_car'/>
    <trip id="night_277" depart="831.00" from="25504350#1" to="25504350#2" type='night_car'/>
    <trip id="night_278" depart="834.00" from="620932850#3" to="37177801#3" type='night_car'/>
    <trip id="night_279" depart="837.00" from="-53103893#1" to="-51095934#3" type='night_car'/>
    <trip id="night_280" depart="840.00" from="-54985260#13" to="51510531#1" type='night_car'/>
    <trip id="night_281" depart="843.00" from="170094572#2" to="183263068#1" type='night_car'/>
    <trip id="night_282" depart="846.00" from="-186475564#3" to="-51543398#1" type='night_car'/>
    <trip id="night_283" depart="849.00" from="-1331576371#1" to="25504350#1" type='night_car'/>
    <trip id="night_284" depart="852.00" from="-88247764#1" to="1331576371#1" type='night_car'/>
    <trip id="night_285" depart="855.00" from="-25684551#2" to="-25684487" type='night_car'/>
    <trip id="night_286" depart="858.00" from="-186475564#0" to="186475564#0" type='night_car'/>
    <trip id="night_287" depart="861.00" from="-50831918#1" to="829563410#2" type='night_car'/>
    <trip id="night_288" depart="864.00" from="50831915#0" to="-186475564#1" type='night_car'/>
    <trip id="night_289" depart="867.00" from="49830666#3" to="-54985260#12" type='night_car'/>
    <trip id="night_290" depart="870.00" from="-88247764#6" to="-54985260#4" type='night_car'/>
    <trip id="night_291" depart="873.00" from="54985279#2" to="477271462#4" type='night_car'/>
    <trip id="night_292" depart="876.00" from="53369130#0" to="-88247764#1" type='night_car'/>
    <trip id="night_293" depart="879.00" from="1124346622#0" to="25504350#3" type='night_car'/>
    <trip id="night_294" depart="882.00" from="-635143862#1" to="50831918#0" type='night_car'/>
    <trip id="night_295" depart="885.00" from="192987238#2" to="25504350#1" type='night_car'/>
    <trip id="night_296" depart="888.00" from="1075767203#1" to="-130503625#0" type='night_car'/>
    <trip id="night_297" depart="891.00" from="622102031#2" to="-622102031#0" type='night_car'/>
    <trip id="night_298" depart="894.00" from="-130503625#2" to="1204274369" type='night_car'/>
    <trip id="night_299" depart="897.00" from="-622102031#6" to="50831915#1" type='night_car'/>
    <trip id="night_300" depart="900.00" from="-1204274370" to="25504350#6" type='night_car'/>
    <trip id="night_301" depart="903.00" from="170083666#1" to="626880271#0" type='night_car'/>
    <trip id="night_302" depart="906.00" from="-25504350#5" to="-620932850#1" type='night_car'/>
    <trip id="night_303" depart="909.00" from="-326037134#0" to="-64973297#0" type='night_car'/>
    <trip id="night_304" depart="912.00" from="-25504350#0" to="-25684487" type='night_car'/>
    <trip id="night_305" depart="915.00" from="88247764#5" to="-622102031#7" type='night_car'/>
    <trip id="night_306" depart="918.00" from="-1101990231" to="-50831915#10" type='night_car'/>
    <trip id="night_307" depart="921.00" from="-51095930#1" to="51095934#15" type='night_car'/>