<?xml version="1.0" encoding="UTF-8"?>

<routes>
    <vType id="bus"
           vClass="bus"
           accel="1.0"
           decel="4.0"
           length="12"
           minGap="2.5"
           maxSpeed="16.7"
           color="0,1,0"/>

    <vType id="night_car"        color="0.2,0.2,0.5" maxSpeed="16.67" lcStrategic="2.0"
       lcCooperative="1.0"
       lcSpeedGain="1.0"
       lcKeepRight="0.3"/>
    <vType id="dawn_car"         color="0.4,0.4,0.8" maxSpeed="16.67" lcStrategic="2.0"
       lcCooperative="1.0"
       lcSpeedGain="1.0"
       lcKeepRight="0.3"/>
    <vType id="early_morning_car" color="0.7,0.7,0.9" maxSpeed="16.67" lcStrategic="2.0"
       lcCooperative="1.0"
       lcSpeedGain="1.0"
       lcKeepRight="0.3"/>
    <vType id="morning_peak_car" color="1,1,0.6" maxSpeed="16.67" lcStrategic="2.0"
       lcCooperative="1.0"
       lcSpeedGain="1.0"
       lcKeepRight="0.3"/>
    <vType id="lunch_car"       color="1,0.5,0.4" maxSpeed="16.67" lcStrategic="2.0"
       lcCooperative="1.0"
       lcSpeedGain="1.0"
       lcKeepRight="0.3"/>
    <vType id="day_car"          color="1,0.7,0.3" maxSpeed="16.67" lcStrategic="2.0"
       lcCooperative="1.0"
       lcSpeedGain="1.0"
       lcKeepRight="0.3"/>
    <vType id="afternoon_car"    color="1,0.5,0.2" maxSpeed="16.67" lcStrategic="2.0"
       lcCooperative="1.0"
       lcSpeedGain="1.0"
       lcKeepRight="0.3"/>
    <vType id="evening_peak_car" color="0.9,0.3,0.3" maxSpeed="16.67" lcStrategic="2.0"
       lcCooperative="1.0"
       lcSpeedGain="1.0"
       lcKeepRight="0.3"/>
    <vType id="late_evening_car" color="0.5,0.3,0.7" maxSpeed="16.67" lcStrategic="2.0"
       lcCooperative="1.0"
       lcSpeedGain="1.0"
       lcKeepRight="0.3"/>


</routes>